--------------------------------------------------------------------------
WARNING: Linux kernel CMA support was requested via the
btl_vader_single_copy_mechanism MCA variable, but CMA support is
not available due to restrictive ptrace settings.

The vader shared memory BTL will fall back on another single-copy
mechanism if one is available. This may result in lower performance.

  Local host: DESKTOP-DOBVM7I
--------------------------------------------------------------------------
/*---------------------------------------------------------------------------*\
| =========                 |                                                 |
| \\      /  F ield         | OpenFOAM: The Open Source CFD Toolbox           |
|  \\    /   O peration     | Version:  v2012                                 |
|   \\  /    A nd           | Website:  www.openfoam.com                      |
|    \\/     M anipulation  |                                                 |
\*---------------------------------------------------------------------------*/
Build  : _7bdb509494-20201222 OPENFOAM=2012
Arch   : "LSB;label=32;scalar=64"
Exec   : pisoFoam -parallel
Date   : Jul 11 2021
Time   : 10:45:27
Host   : DESKTOP-DOBVM7I
PID    : 3451
I/O    : uncollated
Case   : /mnt/c/Users/TSam/GitHub_OpenFOAM/OpenFOAM_snappyHexMesh/refined_pisoFoam_snappyPipe
nProcs : 2
Hosts  :
(
    (DESKTOP-DOBVM7I 2)
)
Pstream initialized with:
    floatTransfer      : 0
    nProcsSimpleSum    : 0
    commsType          : nonBlocking
    polling iterations : 0
trapFpe: Floating point exception trapping enabled (FOAM_SIGFPE).
fileModificationChecking : Monitoring run-time modified files using timeStampMaster (fileModificationSkew 5, maxFileModificationPolls 20)
allowSystemOperations : Allowing user-supplied system call operations

// * * * * * * * * * * * * * * * * * * * * * * * * * * * * * * * * * * * * * //
Create time

Create mesh for time = 0


PISO: Operating solver in PISO mode

Reading field p

Reading field U

Reading/calculating face flux field phi

Selecting incompressible transport model Newtonian
Selecting turbulence model type RAS
Selecting RAS turbulence model kEpsilon
RAS
{
    RASModel        kEpsilon;
    turbulence      on;
    printCoeffs     on;
    Cmu             0.09;
    C1              1.44;
    C2              1.92;
    C3              0;
    sigmak          1;
    sigmaEps        1.3;
}

No MRF models present

No finite volume options present

Starting time loop

Time = 0.025

Courant Number mean: 0.0377384 max: 0.306184
smoothSolver:  Solving for Ux, Initial residual = 1, Final residual = 8.87748e-07, No Iterations 3
smoothSolver:  Solving for Uy, Initial residual = 1, Final residual = 8.8775e-07, No Iterations 3
smoothSolver:  Solving for Uz, Initial residual = 1, Final residual = 2.97861e-06, No Iterations 2
DICPCG:  Solving for p, Initial residual = 1, Final residual = 0.0480745, No Iterations 459
time step continuity errors : sum local = 5.24371e-08, global = 3.83776e-10, cumulative = 3.83776e-10
[DESKTOP-DOBVM7I:03447] 1 more process has sent help message help-btl-vader.txt / cma-permission-denied
[DESKTOP-DOBVM7I:03447] Set MCA parameter "orte_base_help_aggregate" to 0 to see all help / error messages
DICPCG:  Solving for p, Initial residual = 0.000276058, Final residual = 8.60558e-07, No Iterations 468
time step continuity errors : sum local = 3.98091e-10, global = 1.3206e-13, cumulative = 3.83908e-10
smoothSolver:  Solving for epsilon, Initial residual = 0.000838565, Final residual = 1.11722e-06, No Iterations 1
smoothSolver:  Solving for k, Initial residual = 1, Final residual = 3.79259e-06, No Iterations 2
ExecutionTime = 5.8 s  ClockTime = 6 s

Time = 0.05

Courant Number mean: 0.0378272 max: 0.300016
smoothSolver:  Solving for Ux, Initial residual = 0.330537, Final residual = 1.21104e-06, No Iterations 2
smoothSolver:  Solving for Uy, Initial residual = 0.330534, Final residual = 1.21086e-06, No Iterations 2
smoothSolver:  Solving for Uz, Initial residual = 0.76001, Final residual = 1.10495e-06, No Iterations 2
DICPCG:  Solving for p, Initial residual = 0.00463401, Final residual = 0.000219162, No Iterations 462
time step continuity errors : sum local = 1.03528e-07, global = -6.4053e-10, cumulative = -2.56621e-10
DICPCG:  Solving for p, Initial residual = 0.035976, Final residual = 9.85742e-07, No Iterations 492
time step continuity errors : sum local = 4.57658e-12, global = -3.98552e-14, cumulative = -2.56661e-10
smoothSolver:  Solving for epsilon, Initial residual = 0.000380711, Final residual = 3.00654e-07, No Iterations 1
smoothSolver:  Solving for k, Initial residual = 0.186518, Final residual = 1.96607e-07, No Iterations 2
ExecutionTime = 10.6 s  ClockTime = 11 s

Time = 0.075

Courant Number mean: 0.037827 max: 0.299475
smoothSolver:  Solving for Ux, Initial residual = 0.0253735, Final residual = 3.03151e-07, No Iterations 2
smoothSolver:  Solving for Uy, Initial residual = 0.0254048, Final residual = 3.03153e-07, No Iterations 2
smoothSolver:  Solving for Uz, Initial residual = 0.0484338, Final residual = 1.06015e-07, No Iterations 2
DICPCG:  Solving for p, Initial residual = 0.0746607, Final residual = 0.00159575, No Iterations 2
time step continuity errors : sum local = 1.18376e-08, global = -5.50149e-11, cumulative = -3.11676e-10
DICPCG:  Solving for p, Initial residual = 0.00201992, Final residual = 8.0902e-07, No Iterations 477
time step continuity errors : sum local = 5.56785e-12, global = 5.60436e-14, cumulative = -3.1162e-10
smoothSolver:  Solving for epsilon, Initial residual = 0.000367612, Final residual = 2.74143e-07, No Iterations 1
smoothSolver:  Solving for k, Initial residual = 0.10314, Final residual = 1.39832e-07, No Iterations 2
ExecutionTime = 13.24 s  ClockTime = 13 s

Time = 0.1

Courant Number mean: 0.0378267 max: 0.29923
smoothSolver:  Solving for Ux, Initial residual = 0.0138033, Final residual = 2.39815e-07, No Iterations 2
smoothSolver:  Solving for Uy, Initial residual = 0.0138005, Final residual = 2.39779e-07, No Iterations 2
smoothSolver:  Solving for Uz, Initial residual = 0.0412554, Final residual = 8.75593e-08, No Iterations 2
DICPCG:  Solving for p, Initial residual = 0.0263874, Final residual = 0.000484243, No Iterations 2
time step continuity errors : sum local = 3.15447e-09, global = -4.54135e-11, cumulative = -3.57034e-10
DICPCG:  Solving for p, Initial residual = 0.000596123, Final residual = 7.30155e-07, No Iterations 474
time step continuity errors : sum local = 4.63816e-12, global = -2.04538e-14, cumulative = -3.57054e-10
smoothSolver:  Solving for epsilon, Initial residual = 0.000356243, Final residual = 2.63982e-07, No Iterations 1
smoothSolver:  Solving for k, Initial residual = 0.0713697, Final residual = 9.443e-08, No Iterations 2
ExecutionTime = 15.74 s  ClockTime = 16 s

Time = 0.125

Courant Number mean: 0.0378264 max: 0.299002
smoothSolver:  Solving for Ux, Initial residual = 0.0106919, Final residual = 2.09693e-07, No Iterations 2
smoothSolver:  Solving for Uy, Initial residual = 0.010691, Final residual = 2.09653e-07, No Iterations 2
smoothSolver:  Solving for Uz, Initial residual = 0.0359053, Final residual = 7.51918e-08, No Iterations 2
DICPCG:  Solving for p, Initial residual = 0.0169925, Final residual = 0.000302426, No Iterations 2
time step continuity errors : sum local = 1.85329e-09, global = -5.00094e-11, cumulative = -4.07063e-10
DICPCG:  Solving for p, Initial residual = 0.000371857, Final residual = 8.48516e-07, No Iterations 472
time step continuity errors : sum local = 5.12036e-12, global = 2.85195e-14, cumulative = -4.07035e-10
smoothSolver:  Solving for epsilon, Initial residual = 0.000346115, Final residual = 2.58198e-07, No Iterations 1
smoothSolver:  Solving for k, Initial residual = 0.0546103, Final residual = 7.37541e-08, No Iterations 2
ExecutionTime = 18.63 s  ClockTime = 19 s

Time = 0.15

Courant Number mean: 0.0378261 max: 0.298763
smoothSolver:  Solving for Ux, Initial residual = 0.00884494, Final residual = 1.87187e-07, No Iterations 2
smoothSolver:  Solving for Uy, Initial residual = 0.00884697, Final residual = 1.87175e-07, No Iterations 2
smoothSolver:  Solving for Uz, Initial residual = 0.0317692, Final residual = 6.58534e-08, No Iterations 2
DICPCG:  Solving for p, Initial residual = 0.0119551, Final residual = 0.000249132, No Iterations 2
time step continuity errors : sum local = 1.46915e-09, global = -6.95228e-11, cumulative = -4.76558e-10
DICPCG:  Solving for p, Initial residual = 0.000299657, Final residual = 8.52077e-07, No Iterations 473
time step continuity errors : sum local = 4.97166e-12, global = 1.86731e-14, cumulative = -4.76539e-10
smoothSolver:  Solving for epsilon, Initial residual = 0.000336942, Final residual = 2.52829e-07, No Iterations 1
smoothSolver:  Solving for k, Initial residual = 0.0442555, Final residual = 5.7391e-08, No Iterations 2
ExecutionTime = 21.67 s  ClockTime = 22 s

Time = 0.175

Courant Number mean: 0.0378258 max: 0.298495
smoothSolver:  Solving for Ux, Initial residual = 0.00760496, Final residual = 1.71082e-07, No Iterations 2
smoothSolver:  Solving for Uy, Initial residual = 0.00760749, Final residual = 1.7108e-07, No Iterations 2
smoothSolver:  Solving for Uz, Initial residual = 0.0284628, Final residual = 9.97195e-06, No Iterations 1
DICPCG:  Solving for p, Initial residual = 0.00893477, Final residual = 0.000207238, No Iterations 2
time step continuity errors : sum local = 1.19007e-09, global = -7.03367e-11, cumulative = -5.46876e-10
DICPCG:  Solving for p, Initial residual = 0.00024815, Final residual = 9.30064e-07, No Iterations 459
time step continuity errors : sum local = 5.29906e-12, global = -9.18626e-14, cumulative = -5.46968e-10
smoothSolver:  Solving for epsilon, Initial residual = 0.00032849, Final residual = 2.44673e-07, No Iterations 1
smoothSolver:  Solving for k, Initial residual = 0.0372229, Final residual = 4.85601e-08, No Iterations 2
ExecutionTime = 24.4 s  ClockTime = 25 s

Time = 0.2

Courant Number mean: 0.0378255 max: 0.298283
smoothSolver:  Solving for Ux, Initial residual = 0.00682713, Final residual = 1.60905e-07, No Iterations 2
smoothSolver:  Solving for Uy, Initial residual = 0.00683089, Final residual = 1.60929e-07, No Iterations 2
smoothSolver:  Solving for Uz, Initial residual = 0.0257676, Final residual = 8.9998e-06, No Iterations 1
DICPCG:  Solving for p, Initial residual = 0.00699126, Final residual = 0.000187527, No Iterations 2
time step continuity errors : sum local = 1.0562e-09, global = -7.09375e-11, cumulative = -6.17905e-10
DICPCG:  Solving for p, Initial residual = 0.000221025, Final residual = 8.07795e-07, No Iterations 473
time step continuity errors : sum local = 4.5222e-12, global = 2.94617e-14, cumulative = -6.17876e-10
smoothSolver:  Solving for epsilon, Initial residual = 0.000320649, Final residual = 2.35882e-07, No Iterations 1
smoothSolver:  Solving for k, Initial residual = 0.0321348, Final residual = 4.14873e-08, No Iterations 2
ExecutionTime = 27.54 s  ClockTime = 28 s

Time = 0.225

Courant Number mean: 0.0378253 max: 0.298212
smoothSolver:  Solving for Ux, Initial residual = 0.00623212, Final residual = 1.54889e-07, No Iterations 2
smoothSolver:  Solving for Uy, Initial residual = 0.00623383, Final residual = 1.54905e-07, No Iterations 2
smoothSolver:  Solving for Uz, Initial residual = 0.0235437, Final residual = 8.21256e-06, No Iterations 1
DICPCG:  Solving for p, Initial residual = 0.00569242, Final residual = 0.000170395, No Iterations 2
time step continuity errors : sum local = 9.45746e-10, global = -7.20783e-11, cumulative = -6.89954e-10
DICPCG:  Solving for p, Initial residual = 0.000200408, Final residual = 9.47223e-07, No Iterations 472
time step continuity errors : sum local = 5.23204e-12, global = 3.27239e-14, cumulative = -6.89921e-10
smoothSolver:  Solving for epsilon, Initial residual = 0.000313345, Final residual = 2.30083e-07, No Iterations 1
smoothSolver:  Solving for k, Initial residual = 0.0282828, Final residual = 3.65014e-08, No Iterations 2
ExecutionTime = 30.39 s  ClockTime = 31 s

Time = 0.25

Courant Number mean: 0.037825 max: 0.298122
smoothSolver:  Solving for Ux, Initial residual = 0.0057557, Final residual = 1.50983e-07, No Iterations 2
smoothSolver:  Solving for Uy, Initial residual = 0.00575792, Final residual = 1.51014e-07, No Iterations 2
smoothSolver:  Solving for Uz, Initial residual = 0.0216769, Final residual = 7.55419e-06, No Iterations 1
DICPCG:  Solving for p, Initial residual = 0.00473653, Final residual = 0.000151479, No Iterations 2
time step continuity errors : sum local = 8.31287e-10, global = -7.13051e-11, cumulative = -7.61226e-10
DICPCG:  Solving for p, Initial residual = 0.000178488, Final residual = 7.80824e-07, No Iterations 473
time step continuity errors : sum local = 4.26828e-12, global = 3.21426e-14, cumulative = -7.61194e-10
smoothSolver:  Solving for epsilon, Initial residual = 0.000306496, Final residual = 2.24656e-07, No Iterations 1
smoothSolver:  Solving for k, Initial residual = 0.025265, Final residual = 3.20038e-08, No Iterations 2
ExecutionTime = 33.17 s  ClockTime = 34 s

Time = 0.275

Courant Number mean: 0.0378247 max: 0.298007
smoothSolver:  Solving for Ux, Initial residual = 0.0053649, Final residual = 1.47759e-07, No Iterations 2
smoothSolver:  Solving for Uy, Initial residual = 0.00536821, Final residual = 1.47802e-07, No Iterations 2
smoothSolver:  Solving for Uz, Initial residual = 0.02008, Final residual = 6.99627e-06, No Iterations 1
DICPCG:  Solving for p, Initial residual = 0.00403789, Final residual = 0.000139032, No Iterations 2
time step continuity errors : sum local = 7.56235e-10, global = -6.96507e-11, cumulative = -8.30845e-10
DICPCG:  Solving for p, Initial residual = 0.000164338, Final residual = 8.27219e-07, No Iterations 452
time step continuity errors : sum local = 4.485e-12, global = -7.14213e-14, cumulative = -8.30916e-10
smoothSolver:  Solving for epsilon, Initial residual = 0.000300042, Final residual = 2.19387e-07, No Iterations 1
smoothSolver:  Solving for k, Initial residual = 0.022837, Final residual = 2.88988e-08, No Iterations 2
ExecutionTime = 36.04 s  ClockTime = 37 s

Time = 0.3

Courant Number mean: 0.0378245 max: 0.297865
smoothSolver:  Solving for Ux, Initial residual = 0.00505229, Final residual = 1.45498e-07, No Iterations 2
smoothSolver:  Solving for Uy, Initial residual = 0.00505712, Final residual = 1.45541e-07, No Iterations 2
smoothSolver:  Solving for Uz, Initial residual = 0.0187016, Final residual = 6.51813e-06, No Iterations 1
DICPCG:  Solving for p, Initial residual = 0.00347987, Final residual = 0.000126215, No Iterations 2
time step continuity errors : sum local = 6.8173e-10, global = -6.92338e-11, cumulative = -9.0015e-10
DICPCG:  Solving for p, Initial residual = 0.00014943, Final residual = 9.98386e-07, No Iterations 472
time step continuity errors : sum local = 5.37834e-12, global = 3.73139e-14, cumulative = -9.00113e-10
smoothSolver:  Solving for epsilon, Initial residual = 0.000293939, Final residual = 2.14069e-07, No Iterations 1
smoothSolver:  Solving for k, Initial residual = 0.0208412, Final residual = 2.65717e-08, No Iterations 2
ExecutionTime = 38.92 s  ClockTime = 40 s

Time = 0.325

Courant Number mean: 0.0378242 max: 0.297693
smoothSolver:  Solving for Ux, Initial residual = 0.00482576, Final residual = 1.43457e-07, No Iterations 2
smoothSolver:  Solving for Uy, Initial residual = 0.00482907, Final residual = 1.43484e-07, No Iterations 2
smoothSolver:  Solving for Uz, Initial residual = 0.0174959, Final residual = 6.10115e-06, No Iterations 1
DICPCG:  Solving for p, Initial residual = 0.00303112, Final residual = 0.00011338, No Iterations 2
time step continuity errors : sum local = 6.09036e-10, global = -6.57201e-11, cumulative = -9.65833e-10
DICPCG:  Solving for p, Initial residual = 0.000135008, Final residual = 9.21029e-07, No Iterations 445
time step continuity errors : sum local = 4.93642e-12, global = -5.83933e-15, cumulative = -9.65839e-10
smoothSolver:  Solving for epsilon, Initial residual = 0.000288145, Final residual = 2.0922e-07, No Iterations 1
smoothSolver:  Solving for k, Initial residual = 0.0191714, Final residual = 2.42449e-08, No Iterations 2
ExecutionTime = 41.69 s  ClockTime = 43 s

Time = 0.35

Courant Number mean: 0.0378239 max: 0.297493
smoothSolver:  Solving for Ux, Initial residual = 0.00464175, Final residual = 1.40813e-07, No Iterations 2
smoothSolver:  Solving for Uy, Initial residual = 0.0046437, Final residual = 1.40834e-07, No Iterations 2
smoothSolver:  Solving for Uz, Initial residual = 0.0164299, Final residual = 5.73171e-06, No Iterations 1
DICPCG:  Solving for p, Initial residual = 0.00267718, Final residual = 0.000103998, No Iterations 2
time step continuity errors : sum local = 5.56177e-10, global = -6.26033e-11, cumulative = -1.02844e-09
DICPCG:  Solving for p, Initial residual = 0.000123844, Final residual = 9.98009e-07, No Iterations 444
time step continuity errors : sum local = 5.32699e-12, global = -3.4644e-14, cumulative = -1.02848e-09
smoothSolver:  Solving for epsilon, Initial residual = 0.000282628, Final residual = 2.02766e-07, No Iterations 1
smoothSolver:  Solving for k, Initial residual = 0.0177538, Final residual = 9.70265e-06, No Iterations 1
ExecutionTime = 44.3 s  ClockTime = 46 s

Time = 0.375

Courant Number mean: 0.0378237 max: 0.297265
smoothSolver:  Solving for Ux, Initial residual = 0.0044893, Final residual = 1.37518e-07, No Iterations 2
smoothSolver:  Solving for Uy, Initial residual = 0.00449075, Final residual = 1.37536e-07, No Iterations 2
smoothSolver:  Solving for Uz, Initial residual = 0.0154868, Final residual = 5.40205e-06, No Iterations 1
DICPCG:  Solving for p, Initial residual = 0.00239987, Final residual = 9.25084e-05, No Iterations 2
time step continuity errors : sum local = 4.92962e-10, global = -5.84142e-11, cumulative = -1.08689e-09
DICPCG:  Solving for p, Initial residual = 0.000111769, Final residual = 9.93271e-07, No Iterations 247
time step continuity errors : sum local = 5.28413e-12, global = 7.2987e-13, cumulative = -1.08616e-09
smoothSolver:  Solving for epsilon, Initial residual = 0.000277327, Final residual = 1.99166e-07, No Iterations 1
smoothSolver:  Solving for k, Initial residual = 0.0165354, Final residual = 8.5143e-06, No Iterations 1
ExecutionTime = 46.08 s  ClockTime = 47 s

Time = 0.4

Courant Number mean: 0.0378234 max: 0.297012
smoothSolver:  Solving for Ux, Initial residual = 0.00436167, Final residual = 1.34204e-07, No Iterations 2
smoothSolver:  Solving for Uy, Initial residual = 0.00436272, Final residual = 1.34211e-07, No Iterations 2
smoothSolver:  Solving for Uz, Initial residual = 0.0146456, Final residual = 5.10482e-06, No Iterations 1
DICPCG:  Solving for p, Initial residual = 0.00216002, Final residual = 8.42565e-05, No Iterations 2
time step continuity errors : sum local = 4.47842e-10, global = -5.18119e-11, cumulative = -1.13797e-09
DICPCG:  Solving for p, Initial residual = 0.000102706, Final residual = 9.66981e-07, No Iterations 382
time step continuity errors : sum local = 5.13223e-12, global = -7.20301e-14, cumulative = -1.13804e-09
smoothSolver:  Solving for epsilon, Initial residual = 0.000272222, Final residual = 1.94069e-07, No Iterations 1
smoothSolver:  Solving for k, Initial residual = 0.0154768, Final residual = 7.40661e-06, No Iterations 1
ExecutionTime = 48.38 s  ClockTime = 50 s

Time = 0.425

Courant Number mean: 0.0378232 max: 0.296738
smoothSolver:  Solving for Ux, Initial residual = 0.00424311, Final residual = 1.30248e-07, No Iterations 2
smoothSolver:  Solving for Uy, Initial residual = 0.00424432, Final residual = 1.30255e-07, No Iterations 2
smoothSolver:  Solving for Uz, Initial residual = 0.0138854, Final residual = 4.83584e-06, No Iterations 1
DICPCG:  Solving for p, Initial residual = 0.00197318, Final residual = 7.66899e-05, No Iterations 2
time step continuity errors : sum local = 4.06422e-10, global = -5.04207e-11, cumulative = -1.18847e-09
DICPCG:  Solving for p, Initial residual = 9.45406e-05, Final residual = 9.41473e-07, No Iterations 227
time step continuity errors : sum local = 4.98298e-12, global = -3.98367e-13, cumulative = -1.18886e-09
smoothSolver:  Solving for epsilon, Initial residual = 0.000267462, Final residual = 1.88618e-07, No Iterations 1
smoothSolver:  Solving for k, Initial residual = 0.0145484, Final residual = 7.22436e-06, No Iterations 1
ExecutionTime = 49.85 s  ClockTime = 51 s

Time = 0.45

Courant Number mean: 0.0378229 max: 0.296448
smoothSolver:  Solving for Ux, Initial residual = 0.00412944, Final residual = 9.83716e-06, No Iterations 1
smoothSolver:  Solving for Uy, Initial residual = 0.00413022, Final residual = 9.83831e-06, No Iterations 1
smoothSolver:  Solving for Uz, Initial residual = 0.0132028, Final residual = 4.5927e-06, No Iterations 1
DICPCG:  Solving for p, Initial residual = 0.00179278, Final residual = 6.98692e-05, No Iterations 2
time step continuity errors : sum local = 3.69626e-10, global = -4.86588e-11, cumulative = -1.23752e-09
DICPCG:  Solving for p, Initial residual = 9.06896e-05, Final residual = 9.93798e-07, No Iterations 443
time step continuity errors : sum local = 5.25151e-12, global = -1.32544e-13, cumulative = -1.23766e-09
smoothSolver:  Solving for epsilon, Initial residual = 0.000262811, Final residual = 1.84715e-07, No Iterations 1
smoothSolver:  Solving for k, Initial residual = 0.0137274, Final residual = 6.93494e-06, No Iterations 1
ExecutionTime = 52.46 s  ClockTime = 54 s

Time = 0.475

Courant Number mean: 0.0378227 max: 0.296147
smoothSolver:  Solving for Ux, Initial residual = 0.00403929, Final residual = 9.60847e-06, No Iterations 1
smoothSolver:  Solving for Uy, Initial residual = 0.00403994, Final residual = 9.60984e-06, No Iterations 1
smoothSolver:  Solving for Uz, Initial residual = 0.0125873, Final residual = 4.3719e-06, No Iterations 1
DICPCG:  Solving for p, Initial residual = 0.00163595, Final residual = 6.35531e-05, No Iterations 2
time step continuity errors : sum local = 3.35902e-10, global = -4.44354e-11, cumulative = -1.28209e-09
DICPCG:  Solving for p, Initial residual = 8.3348e-05, Final residual = 9.74571e-07, No Iterations 131
time step continuity errors : sum local = 5.14578e-12, global = -1.64212e-13, cumulative = -1.28225e-09
smoothSolver:  Solving for epsilon, Initial residual = 0.000258519, Final residual = 1.81013e-07, No Iterations 1
smoothSolver:  Solving for k, Initial residual = 0.0129964, Final residual = 6.42665e-06, No Iterations 1
ExecutionTime = 53.55 s  ClockTime = 55 s

Time = 0.5

Courant Number mean: 0.0378224 max: 0.295839
smoothSolver:  Solving for Ux, Initial residual = 0.00397573, Final residual = 9.37151e-06, No Iterations 1
smoothSolver:  Solving for Uy, Initial residual = 0.0039762, Final residual = 9.37292e-06, No Iterations 1
smoothSolver:  Solving for Uz, Initial residual = 0.0120237, Final residual = 4.16943e-06, No Iterations 1
DICPCG:  Solving for p, Initial residual = 0.00151412, Final residual = 5.92171e-05, No Iterations 2
time step continuity errors : sum local = 3.12569e-10, global = -4.1669e-11, cumulative = -1.32392e-09
DICPCG:  Solving for p, Initial residual = 7.84111e-05, Final residual = 9.97485e-07, No Iterations 335
time step continuity errors : sum local = 5.26049e-12, global = -1.43359e-13, cumulative = -1.32407e-09
smoothSolver:  Solving for epsilon, Initial residual = 0.000254292, Final residual = 1.78127e-07, No Iterations 1
smoothSolver:  Solving for k, Initial residual = 0.0123412, Final residual = 6.11281e-06, No Iterations 1
ExecutionTime = 55.79 s  ClockTime = 58 s

Time = 0.525

Courant Number mean: 0.0378222 max: 0.295531
smoothSolver:  Solving for Ux, Initial residual = 0.00391212, Final residual = 9.10634e-06, No Iterations 1
smoothSolver:  Solving for Uy, Initial residual = 0.00391237, Final residual = 9.10772e-06, No Iterations 1
smoothSolver:  Solving for Uz, Initial residual = 0.0115103, Final residual = 3.9845e-06, No Iterations 1
DICPCG:  Solving for p, Initial residual = 0.00141491, Final residual = 5.51643e-05, No Iterations 2
time step continuity errors : sum local = 2.90972e-10, global = -3.73772e-11, cumulative = -1.36144e-09
DICPCG:  Solving for p, Initial residual = 7.41445e-05, Final residual = 9.61897e-07, No Iterations 314
time step continuity errors : sum local = 5.06968e-12, global = 8.37389e-14, cumulative = -1.36136e-09
smoothSolver:  Solving for epsilon, Initial residual = 0.000250236, Final residual = 1.75531e-07, No Iterations 1
smoothSolver:  Solving for k, Initial residual = 0.0117504, Final residual = 5.79705e-06, No Iterations 1
ExecutionTime = 57.84 s  ClockTime = 60 s

Time = 0.55

Courant Number mean: 0.0378219 max: 0.295227
smoothSolver:  Solving for Ux, Initial residual = 0.00384966, Final residual = 8.84706e-06, No Iterations 1
smoothSolver:  Solving for Uy, Initial residual = 0.0038498, Final residual = 8.84787e-06, No Iterations 1
smoothSolver:  Solving for Uz, Initial residual = 0.0110389, Final residual = 3.8144e-06, No Iterations 1
DICPCG:  Solving for p, Initial residual = 0.00131609, Final residual = 5.00346e-05, No Iterations 2
time step continuity errors : sum local = 2.6378e-10, global = -3.30437e-11, cumulative = -1.3944e-09
DICPCG:  Solving for p, Initial residual = 6.88769e-05, Final residual = 9.10767e-07, No Iterations 463
time step continuity errors : sum local = 4.7981e-12, global = -7.70592e-14, cumulative = -1.39448e-09
smoothSolver:  Solving for epsilon, Initial residual = 0.00024645, Final residual = 1.73957e-07, No Iterations 1
smoothSolver:  Solving for k, Initial residual = 0.011215, Final residual = 5.59329e-06, No Iterations 1
ExecutionTime = 60.68 s  ClockTime = 63 s

Time = 0.575

Courant Number mean: 0.0378217 max: 0.294932
smoothSolver:  Solving for Ux, Initial residual = 0.00379172, Final residual = 8.66434e-06, No Iterations 1
smoothSolver:  Solving for Uy, Initial residual = 0.00379175, Final residual = 8.66502e-06, No Iterations 1
smoothSolver:  Solving for Uz, Initial residual = 0.0106051, Final residual = 3.65697e-06, No Iterations 1
DICPCG:  Solving for p, Initial residual = 0.00122928, Final residual = 4.60469e-05, No Iterations 2
time step continuity errors : sum local = 2.42683e-10, global = -2.99021e-11, cumulative = -1.42438e-09
DICPCG:  Solving for p, Initial residual = 6.41195e-05, Final residual = 9.45938e-07, No Iterations 458
time step continuity errors : sum local = 4.98227e-12, global = -3.90878e-14, cumulative = -1.42442e-09
smoothSolver:  Solving for epsilon, Initial residual = 0.000242815, Final residual = 1.7249e-07, No Iterations 1
smoothSolver:  Solving for k, Initial residual = 0.0107275, Final residual = 5.381e-06, No Iterations 1
ExecutionTime = 63.38 s  ClockTime = 65 s

Time = 0.6

Courant Number mean: 0.0378214 max: 0.294651
smoothSolver:  Solving for Ux, Initial residual = 0.00373779, Final residual = 8.53215e-06, No Iterations 1
smoothSolver:  Solving for Uy, Initial residual = 0.0037379, Final residual = 8.53339e-06, No Iterations 1
smoothSolver:  Solving for Uz, Initial residual = 0.0102044, Final residual = 3.51064e-06, No Iterations 1
DICPCG:  Solving for p, Initial residual = 0.00114931, Final residual = 4.37378e-05, No Iterations 2
time step continuity errors : sum local = 2.30493e-10, global = -2.66972e-11, cumulative = -1.45112e-09
DICPCG:  Solving for p, Initial residual = 6.15958e-05, Final residual = 9.04739e-07, No Iterations 464
time step continuity errors : sum local = 4.76522e-12, global = -4.6691e-14, cumulative = -1.45117e-09
smoothSolver:  Solving for epsilon, Initial residual = 0.000239243, Final residual = 1.70321e-07, No Iterations 1
smoothSolver:  Solving for k, Initial residual = 0.0102817, Final residual = 5.22926e-06, No Iterations 1
ExecutionTime = 66.13 s  ClockTime = 68 s

Time = 0.625

Courant Number mean: 0.0378212 max: 0.294389
smoothSolver:  Solving for Ux, Initial residual = 0.00368339, Final residual = 8.39569e-06, No Iterations 1
smoothSolver:  Solving for Uy, Initial residual = 0.00368342, Final residual = 8.39783e-06, No Iterations 1
smoothSolver:  Solving for Uz, Initial residual = 0.00983315, Final residual = 3.37377e-06, No Iterations 1
DICPCG:  Solving for p, Initial residual = 0.00109233, Final residual = 4.24912e-05, No Iterations 2
time step continuity errors : sum local = 2.23947e-10, global = -2.28087e-11, cumulative = -1.47398e-09
DICPCG:  Solving for p, Initial residual = 5.98376e-05, Final residual = 9.97822e-07, No Iterations 463
time step continuity errors : sum local = 5.25639e-12, global = -1.07892e-13, cumulative = -1.47408e-09
smoothSolver:  Solving for epsilon, Initial residual = 0.000235882, Final residual = 1.67602e-07, No Iterations 1
smoothSolver:  Solving for k, Initial residual = 0.0098724, Final residual = 5.04382e-06, No Iterations 1
ExecutionTime = 69.09 s  ClockTime = 71 s

Time = 0.65

Courant Number mean: 0.0378209 max: 0.294148
smoothSolver:  Solving for Ux, Initial residual = 0.00363285, Final residual = 8.25161e-06, No Iterations 1
smoothSolver:  Solving for Uy, Initial residual = 0.00363296, Final residual = 8.25357e-06, No Iterations 1
smoothSolver:  Solving for Uz, Initial residual = 0.00948831, Final residual = 3.24784e-06, No Iterations 1
DICPCG:  Solving for p, Initial residual = 0.00102533, Final residual = 3.76784e-05, No Iterations 2
time step continuity errors : sum local = 1.98638e-10, global = -2.12566e-11, cumulative = -1.49534e-09
DICPCG:  Solving for p, Initial residual = 5.4907e-05, Final residual = 8.09945e-07, No Iterations 459
time step continuity errors : sum local = 4.26824e-12, global = -5.49188e-14, cumulative = -1.49539e-09
smoothSolver:  Solving for epsilon, Initial residual = 0.000232672, Final residual = 1.6626e-07, No Iterations 1
smoothSolver:  Solving for k, Initial residual = 0.00949538, Final residual = 4.92798e-06, No Iterations 1
ExecutionTime = 71.82 s  ClockTime = 74 s

Time = 0.675

Courant Number mean: 0.0378207 max: 0.293932
smoothSolver:  Solving for Ux, Initial residual = 0.0035863, Final residual = 8.08177e-06, No Iterations 1
smoothSolver:  Solving for Uy, Initial residual = 0.00358628, Final residual = 8.08354e-06, No Iterations 1
smoothSolver:  Solving for Uz, Initial residual = 0.00916714, Final residual = 3.13119e-06, No Iterations 1
DICPCG:  Solving for p, Initial residual = 0.000972081, Final residual = 3.6073e-05, No Iterations 2
time step continuity errors : sum local = 1.90258e-10, global = -1.76882e-11, cumulative = -1.51308e-09
DICPCG:  Solving for p, Initial residual = 5.32194e-05, Final residual = 8.81235e-07, No Iterations 465
time step continuity errors : sum local = 4.64614e-12, global = -3.43228e-14, cumulative = -1.51312e-09
smoothSolver:  Solving for epsilon, Initial residual = 0.000229589, Final residual = 1.64416e-07, No Iterations 1
smoothSolver:  Solving for k, Initial residual = 0.00914697, Final residual = 4.79615e-06, No Iterations 1
ExecutionTime = 74.52 s  ClockTime = 77 s

Time = 0.7

Courant Number mean: 0.0378205 max: 0.293742
smoothSolver:  Solving for Ux, Initial residual = 0.00353784, Final residual = 7.91989e-06, No Iterations 1
smoothSolver:  Solving for Uy, Initial residual = 0.00353795, Final residual = 7.92176e-06, No Iterations 1
smoothSolver:  Solving for Uz, Initial residual = 0.00886727, Final residual = 3.02275e-06, No Iterations 1
DICPCG:  Solving for p, Initial residual = 0.000927021, Final residual = 3.30638e-05, No Iterations 2
time step continuity errors : sum local = 1.74483e-10, global = -1.53357e-11, cumulative = -1.52845e-09
DICPCG:  Solving for p, Initial residual = 5.01098e-05, Final residual = 9.95535e-07, No Iterations 465
time step continuity errors : sum local = 5.2519e-12, global = -8.03842e-14, cumulative = -1.52853e-09
smoothSolver:  Solving for epsilon, Initial residual = 0.000226604, Final residual = 1.61432e-07, No Iterations 1
smoothSolver:  Solving for k, Initial residual = 0.00882398, Final residual = 4.64783e-06, No Iterations 1
ExecutionTime = 77.16 s  ClockTime = 79 s

Time = 0.725

Courant Number mean: 0.0378202 max: 0.29358
smoothSolver:  Solving for Ux, Initial residual = 0.00348792, Final residual = 7.74765e-06, No Iterations 1
smoothSolver:  Solving for Uy, Initial residual = 0.00348768, Final residual = 7.75e-06, No Iterations 1
smoothSolver:  Solving for Uz, Initial residual = 0.00858669, Final residual = 2.92124e-06, No Iterations 1
DICPCG:  Solving for p, Initial residual = 0.000896125, Final residual = 3.00616e-05, No Iterations 2
time step continuity errors : sum local = 1.58742e-10, global = -1.24044e-11, cumulative = -1.54094e-09
DICPCG:  Solving for p, Initial residual = 4.6753e-05, Final residual = 9.40905e-07, No Iterations 464
time step continuity errors : sum local = 4.96699e-12, global = -1.13046e-13, cumulative = -1.54105e-09
smoothSolver:  Solving for epsilon, Initial residual = 0.000223719, Final residual = 1.59631e-07, No Iterations 1
smoothSolver:  Solving for k, Initial residual = 0.0085237, Final residual = 4.56316e-06, No Iterations 1
ExecutionTime = 79.89 s  ClockTime = 82 s

Time = 0.75

Courant Number mean: 0.03782 max: 0.293446
smoothSolver:  Solving for Ux, Initial residual = 0.00343852, Final residual = 7.59957e-06, No Iterations 1
smoothSolver:  Solving for Uy, Initial residual = 0.00343839, Final residual = 7.60223e-06, No Iterations 1
smoothSolver:  Solving for Uz, Initial residual = 0.00832355, Final residual = 2.82665e-06, No Iterations 1
DICPCG:  Solving for p, Initial residual = 0.000849183, Final residual = 2.78451e-05, No Iterations 2
time step continuity errors : sum local = 1.47142e-10, global = -1.05241e-11, cumulative = -1.55157e-09
DICPCG:  Solving for p, Initial residual = 4.42876e-05, Final residual = 8.79036e-07, No Iterations 464
time step continuity errors : sum local = 4.64383e-12, global = -7.37619e-14, cumulative = -1.55165e-09
smoothSolver:  Solving for epsilon, Initial residual = 0.000220915, Final residual = 1.58205e-07, No Iterations 1
smoothSolver:  Solving for k, Initial residual = 0.00824379, Final residual = 4.46098e-06, No Iterations 1
ExecutionTime = 82.45 s  ClockTime = 85 s

Time = 0.775

Courant Number mean: 0.0378197 max: 0.293341
smoothSolver:  Solving for Ux, Initial residual = 0.00339177, Final residual = 7.45046e-06, No Iterations 1
smoothSolver:  Solving for Uy, Initial residual = 0.00339178, Final residual = 7.45232e-06, No Iterations 1
smoothSolver:  Solving for Uz, Initial residual = 0.00807628, Final residual = 2.73925e-06, No Iterations 1
DICPCG:  Solving for p, Initial residual = 0.000809042, Final residual = 2.58007e-05, No Iterations 2
time step continuity errors : sum local = 1.36448e-10, global = -9.02874e-12, cumulative = -1.56068e-09
DICPCG:  Solving for p, Initial residual = 4.3412e-05, Final residual = 9.21242e-07, No Iterations 465
time step continuity errors : sum local = 4.8709e-12, global = -1.06153e-13, cumulative = -1.56078e-09
smoothSolver:  Solving for epsilon, Initial residual = 0.000218195, Final residual = 1.56184e-07, No Iterations 1
smoothSolver:  Solving for k, Initial residual = 0.0079822, Final residual = 4.35199e-06, No Iterations 1
ExecutionTime = 84.97 s  ClockTime = 87 s

Time = 0.8

Courant Number mean: 0.0378195 max: 0.293265
smoothSolver:  Solving for Ux, Initial residual = 0.00334778, Final residual = 7.29074e-06, No Iterations 1
smoothSolver:  Solving for Uy, Initial residual = 0.00334783, Final residual = 7.2933e-06, No Iterations 1
smoothSolver:  Solving for Uz, Initial residual = 0.00784349, Final residual = 2.65847e-06, No Iterations 1
DICPCG:  Solving for p, Initial residual = 0.000763745, Final residual = 2.78954e-05, No Iterations 2
time step continuity errors : sum local = 1.47654e-10, global = -7.7345e-12, cumulative = -1.56852e-09
DICPCG:  Solving for p, Initial residual = 4.38554e-05, Final residual = 9.97651e-07, No Iterations 464
time step continuity errors : sum local = 5.27952e-12, global = -8.57461e-14, cumulative = -1.5686e-09
smoothSolver:  Solving for epsilon, Initial residual = 0.000215545, Final residual = 1.54281e-07, No Iterations 1
smoothSolver:  Solving for k, Initial residual = 0.00773721, Final residual = 4.25658e-06, No Iterations 1
ExecutionTime = 87.61 s  ClockTime = 90 s

Time = 0.825

Courant Number mean: 0.0378192 max: 0.293216
smoothSolver:  Solving for Ux, Initial residual = 0.00330436, Final residual = 7.10587e-06, No Iterations 1
smoothSolver:  Solving for Uy, Initial residual = 0.00330444, Final residual = 7.10866e-06, No Iterations 1
smoothSolver:  Solving for Uz, Initial residual = 0.00762388, Final residual = 2.58271e-06, No Iterations 1
DICPCG:  Solving for p, Initial residual = 0.000742397, Final residual = 2.60379e-05, No Iterations 2
time step continuity errors : sum local = 1.37948e-10, global = -6.20303e-12, cumulative = -1.57481e-09
DICPCG:  Solving for p, Initial residual = 4.25944e-05, Final residual = 9.0392e-07, No Iterations 465
time step continuity errors : sum local = 4.78803e-12, global = -9.76069e-14, cumulative = -1.5749e-09
smoothSolver:  Solving for epsilon, Initial residual = 0.000212975, Final residual = 1.53144e-07, No Iterations 1
smoothSolver:  Solving for k, Initial residual = 0.00750724, Final residual = 4.14599e-06, No Iterations 1
ExecutionTime = 90.18 s  ClockTime = 93 s

Time = 0.85

Courant Number mean: 0.037819 max: 0.293193
smoothSolver:  Solving for Ux, Initial residual = 0.00326401, Final residual = 6.92112e-06, No Iterations 1
smoothSolver:  Solving for Uy, Initial residual = 0.003264, Final residual = 6.92381e-06, No Iterations 1
smoothSolver:  Solving for Uz, Initial residual = 0.00741642, Final residual = 2.51155e-06, No Iterations 1
DICPCG:  Solving for p, Initial residual = 0.000715182, Final residual = 2.60008e-05, No Iterations 2
time step continuity errors : sum local = 1.37888e-10, global = -5.74792e-12, cumulative = -1.58065e-09
DICPCG:  Solving for p, Initial residual = 4.19891e-05, Final residual = 9.24241e-07, No Iterations 465
time step continuity errors : sum local = 4.90066e-12, global = -7.617e-14, cumulative = -1.58073e-09
smoothSolver:  Solving for epsilon, Initial residual = 0.000210494, Final residual = 1.51588e-07, No Iterations 1
smoothSolver:  Solving for k, Initial residual = 0.00729098, Final residual = 4.04132e-06, No Iterations 1
ExecutionTime = 92.82 s  ClockTime = 95 s

Time = 0.875

Courant Number mean: 0.0378187 max: 0.293193
smoothSolver:  Solving for Ux, Initial residual = 0.00322476, Final residual = 6.71297e-06, No Iterations 1
smoothSolver:  Solving for Uy, Initial residual = 0.00322482, Final residual = 6.71568e-06, No Iterations 1
smoothSolver:  Solving for Uz, Initial residual = 0.00722014, Final residual = 2.44449e-06, No Iterations 1
DICPCG:  Solving for p, Initial residual = 0.000693473, Final residual = 2.50844e-05, No Iterations 2
time step continuity errors : sum local = 1.33169e-10, global = -4.49817e-12, cumulative = -1.58523e-09
DICPCG:  Solving for p, Initial residual = 4.13837e-05, Final residual = 9.95009e-07, No Iterations 465
time step continuity errors : sum local = 5.28167e-12, global = -1.12868e-13, cumulative = -1.58534e-09
smoothSolver:  Solving for epsilon, Initial residual = 0.000208071, Final residual = 1.49256e-07, No Iterations 1
smoothSolver:  Solving for k, Initial residual = 0.00708718, Final residual = 3.97413e-06, No Iterations 1
ExecutionTime = 95.37 s  ClockTime = 98 s

Time = 0.9

Courant Number mean: 0.0378185 max: 0.293213
smoothSolver:  Solving for Ux, Initial residual = 0.00318541, Final residual = 6.51993e-06, No Iterations 1
smoothSolver:  Solving for Uy, Initial residual = 0.00318544, Final residual = 6.52192e-06, No Iterations 1
smoothSolver:  Solving for Uz, Initial residual = 0.00703417, Final residual = 2.38101e-06, No Iterations 1
DICPCG:  Solving for p, Initial residual = 0.000662209, Final residual = 2.39802e-05, No Iterations 2
time step continuity errors : sum local = 1.27449e-10, global = -4.21749e-12, cumulative = -1.58956e-09
DICPCG:  Solving for p, Initial residual = 3.98849e-05, Final residual = 8.79632e-07, No Iterations 465
time step continuity errors : sum local = 4.67451e-12, global = -8.61504e-14, cumulative = -1.58964e-09
smoothSolver:  Solving for epsilon, Initial residual = 0.000205709, Final residual = 1.4738e-07, No Iterations 1
smoothSolver:  Solving for k, Initial residual = 0.00689476, Final residual = 3.90538e-06, No Iterations 1
ExecutionTime = 97.97 s  ClockTime = 100 s

Time = 0.925

Courant Number mean: 0.0378183 max: 0.293251
smoothSolver:  Solving for Ux, Initial residual = 0.00314762, Final residual = 6.37684e-06, No Iterations 1
smoothSolver:  Solving for Uy, Initial residual = 0.00314775, Final residual = 6.37975e-06, No Iterations 1
smoothSolver:  Solving for Uz, Initial residual = 0.00685784, Final residual = 2.32083e-06, No Iterations 1
DICPCG:  Solving for p, Initial residual = 0.0006353, Final residual = 2.28918e-05, No Iterations 2
time step continuity errors : sum local = 1.21804e-10, global = -3.66184e-12, cumulative = -1.5933e-09
DICPCG:  Solving for p, Initial residual = 3.84854e-05, Final residual = 9.01841e-07, No Iterations 465
time step continuity errors : sum local = 4.7981e-12, global = -1.38011e-13, cumulative = -1.59344e-09
smoothSolver:  Solving for epsilon, Initial residual = 0.000203441, Final residual = 1.46265e-07, No Iterations 1
smoothSolver:  Solving for k, Initial residual = 0.00671278, Final residual = 3.83241e-06, No Iterations 1
ExecutionTime = 100.61 s  ClockTime = 103 s

Time = 0.95

Courant Number mean: 0.037818 max: 0.293304
smoothSolver:  Solving for Ux, Initial residual = 0.00311079, Final residual = 6.2396e-06, No Iterations 1
smoothSolver:  Solving for Uy, Initial residual = 0.0031109, Final residual = 6.24217e-06, No Iterations 1
smoothSolver:  Solving for Uz, Initial residual = 0.00669035, Final residual = 2.26352e-06, No Iterations 1
DICPCG:  Solving for p, Initial residual = 0.000620673, Final residual = 2.30574e-05, No Iterations 2
time step continuity errors : sum local = 1.22829e-10, global = -3.72451e-12, cumulative = -1.59717e-09
DICPCG:  Solving for p, Initial residual = 3.91824e-05, Final residual = 8.20427e-07, No Iterations 465
time step continuity errors : sum local = 4.37009e-12, global = -1.06048e-13, cumulative = -1.59727e-09
smoothSolver:  Solving for epsilon, Initial residual = 0.000201208, Final residual = 1.43441e-07, No Iterations 1
smoothSolver:  Solving for k, Initial residual = 0.00654037, Final residual = 3.73231e-06, No Iterations 1
ExecutionTime = 103.24 s  ClockTime = 106 s

Time = 0.975

Courant Number mean: 0.0378178 max: 0.293368
smoothSolver:  Solving for Ux, Initial residual = 0.00307547, Final residual = 6.13725e-06, No Iterations 1
smoothSolver:  Solving for Uy, Initial residual = 0.00307554, Final residual = 6.13977e-06, No Iterations 1
smoothSolver:  Solving for Uz, Initial residual = 0.00653099, Final residual = 2.20807e-06, No Iterations 1
DICPCG:  Solving for p, Initial residual = 0.000580739, Final residual = 2.10986e-05, No Iterations 2
time step continuity errors : sum local = 1.12531e-10, global = -3.81016e-12, cumulative = -1.60108e-09
DICPCG:  Solving for p, Initial residual = 3.64485e-05, Final residual = 8.52764e-07, No Iterations 465
time step continuity errors : sum local = 4.54803e-12, global = -1.12265e-13, cumulative = -1.6012e-09
smoothSolver:  Solving for epsilon, Initial residual = 0.000199053, Final residual = 1.41991e-07, No Iterations 1
smoothSolver:  Solving for k, Initial residual = 0.00637679, Final residual = 3.66988e-06, No Iterations 1
ExecutionTime = 105.86 s  ClockTime = 108 s

Time = 1

Courant Number mean: 0.0378175 max: 0.29344
smoothSolver:  Solving for Ux, Initial residual = 0.00303966, Final residual = 6.04041e-06, No Iterations 1
smoothSolver:  Solving for Uy, Initial residual = 0.0030397, Final residual = 6.04245e-06, No Iterations 1
smoothSolver:  Solving for Uz, Initial residual = 0.00637915, Final residual = 2.15457e-06, No Iterations 1
DICPCG:  Solving for p, Initial residual = 0.000567587, Final residual = 2.04139e-05, No Iterations 2
time step continuity errors : sum local = 1.09015e-10, global = -3.01851e-12, cumulative = -1.60421e-09
DICPCG:  Solving for p, Initial residual = 3.57627e-05, Final residual = 9.01527e-07, No Iterations 465
time step continuity errors : sum local = 4.81414e-12, global = -1.4212e-13, cumulative = -1.60436e-09
smoothSolver:  Solving for epsilon, Initial residual = 0.000196937, Final residual = 1.39525e-07, No Iterations 1
smoothSolver:  Solving for k, Initial residual = 0.00622138, Final residual = 3.58623e-06, No Iterations 1
ExecutionTime = 108.65 s  ClockTime = 111 s

Time = 1.025

Courant Number mean: 0.0378173 max: 0.293518
smoothSolver:  Solving for Ux, Initial residual = 0.00300504, Final residual = 5.93724e-06, No Iterations 1
smoothSolver:  Solving for Uy, Initial residual = 0.0030051, Final residual = 5.93865e-06, No Iterations 1
smoothSolver:  Solving for Uz, Initial residual = 0.00623427, Final residual = 2.10294e-06, No Iterations 1
DICPCG:  Solving for p, Initial residual = 0.00055012, Final residual = 2.04106e-05, No Iterations 2
time step continuity errors : sum local = 1.09134e-10, global = -2.97128e-12, cumulative = -1.60733e-09
DICPCG:  Solving for p, Initial residual = 3.55466e-05, Final residual = 8.82489e-07, No Iterations 465
time step continuity errors : sum local = 4.71837e-12, global = -1.37705e-13, cumulative = -1.60747e-09
smoothSolver:  Solving for epsilon, Initial residual = 0.000194881, Final residual = 1.38659e-07, No Iterations 1
smoothSolver:  Solving for k, Initial residual = 0.00607354, Final residual = 3.50656e-06, No Iterations 1
ExecutionTime = 111.2 s  ClockTime = 114 s

Time = 1.05

Courant Number mean: 0.037817 max: 0.293597
smoothSolver:  Solving for Ux, Initial residual = 0.00297049, Final residual = 5.85636e-06, No Iterations 1
smoothSolver:  Solving for Uy, Initial residual = 0.0029706, Final residual = 5.8585e-06, No Iterations 1
smoothSolver:  Solving for Uz, Initial residual = 0.00609589, Final residual = 2.05341e-06, No Iterations 1
DICPCG:  Solving for p, Initial residual = 0.000525655, Final residual = 1.82316e-05, No Iterations 2
time step continuity errors : sum local = 9.76049e-11, global = -3.32066e-12, cumulative = -1.61079e-09
DICPCG:  Solving for p, Initial residual = 3.34719e-05, Final residual = 8.53627e-07, No Iterations 465
time step continuity errors : sum local = 4.56977e-12, global = -1.32363e-13, cumulative = -1.61092e-09
smoothSolver:  Solving for epsilon, Initial residual = 0.000192879, Final residual = 1.36056e-07, No Iterations 1
smoothSolver:  Solving for k, Initial residual = 0.00593268, Final residual = 3.46772e-06, No Iterations 1
ExecutionTime = 114.19 s  ClockTime = 117 s

Time = 1.075

Courant Number mean: 0.0378168 max: 0.293676
smoothSolver:  Solving for Ux, Initial residual = 0.00293653, Final residual = 5.77728e-06, No Iterations 1
smoothSolver:  Solving for Uy, Initial residual = 0.00293669, Final residual = 5.77962e-06, No Iterations 1
smoothSolver:  Solving for Uz, Initial residual = 0.0059636, Final residual = 2.006e-06, No Iterations 1
DICPCG:  Solving for p, Initial residual = 0.000513847, Final residual = 1.74077e-05, No Iterations 2
time step continuity errors : sum local = 9.33107e-11, global = -4.38551e-12, cumulative = -1.6153e-09
DICPCG:  Solving for p, Initial residual = 3.28869e-05, Final residual = 8.37457e-07, No Iterations 465
time step continuity errors : sum local = 4.48884e-12, global = -1.24625e-13, cumulative = -1.61543e-09
smoothSolver:  Solving for epsilon, Initial residual = 0.000190915, Final residual = 1.33911e-07, No Iterations 1
smoothSolver:  Solving for k, Initial residual = 0.00579833, Final residual = 3.38698e-06, No Iterations 1
ExecutionTime = 116.85 s  ClockTime = 120 s

Time = 1.1

Courant Number mean: 0.0378165 max: 0.293752
smoothSolver:  Solving for Ux, Initial residual = 0.00290194, Final residual = 5.70627e-06, No Iterations 1
smoothSolver:  Solving for Uy, Initial residual = 0.00290204, Final residual = 5.70796e-06, No Iterations 1
smoothSolver:  Solving for Uz, Initial residual = 0.00583705, Final residual = 1.96034e-06, No Iterations 1
DICPCG:  Solving for p, Initial residual = 0.000496188, Final residual = 1.67334e-05, No Iterations 2
time step continuity errors : sum local = 8.98094e-11, global = -4.62732e-12, cumulative = -1.62006e-09
DICPCG:  Solving for p, Initial residual = 3.18926e-05, Final residual = 8.94169e-07, No Iterations 465
time step continuity errors : sum local = 4.79891e-12, global = -1.41644e-13, cumulative = -1.6202e-09
smoothSolver:  Solving for epsilon, Initial residual = 0.000189066, Final residual = 1.3258e-07, No Iterations 1
smoothSolver:  Solving for k, Initial residual = 0.00567004, Final residual = 3.32227e-06, No Iterations 1
ExecutionTime = 119.41 s  ClockTime = 122 s

Time = 1.125

Courant Number mean: 0.0378163 max: 0.293822
smoothSolver:  Solving for Ux, Initial residual = 0.00286679, Final residual = 5.65178e-06, No Iterations 1
smoothSolver:  Solving for Uy, Initial residual = 0.0028669, Final residual = 5.65364e-06, No Iterations 1
smoothSolver:  Solving for Uz, Initial residual = 0.00571581, Final residual = 1.91662e-06, No Iterations 1
DICPCG:  Solving for p, Initial residual = 0.000480956, Final residual = 1.66116e-05, No Iterations 2
time step continuity errors : sum local = 8.92693e-11, global = -4.92663e-12, cumulative = -1.62512e-09
DICPCG:  Solving for p, Initial residual = 3.12717e-05, Final residual = 8.64829e-07, No Iterations 465
time step continuity errors : sum local = 4.6474e-12, global = -1.47692e-13, cumulative = -1.62527e-09
smoothSolver:  Solving for epsilon, Initial residual = 0.000187213, Final residual = 1.30462e-07, No Iterations 1
smoothSolver:  Solving for k, Initial residual = 0.00554741, Final residual = 3.21675e-06, No Iterations 1
ExecutionTime = 121.97 s  ClockTime = 125 s

Time = 1.15

Courant Number mean: 0.0378161 max: 0.293885
smoothSolver:  Solving for Ux, Initial residual = 0.00283296, Final residual = 5.60555e-06, No Iterations 1
smoothSolver:  Solving for Uy, Initial residual = 0.00283303, Final residual = 5.60663e-06, No Iterations 1
smoothSolver:  Solving for Uz, Initial residual = 0.00559953, Final residual = 1.87516e-06, No Iterations 1
DICPCG:  Solving for p, Initial residual = 0.000473877, Final residual = 1.5997e-05, No Iterations 2
time step continuity errors : sum local = 8.60764e-11, global = -4.66445e-12, cumulative = -1.62994e-09
DICPCG:  Solving for p, Initial residual = 3.0868e-05, Final residual = 8.5783e-07, No Iterations 465
time step continuity errors : sum local = 4.61571e-12, global = -1.44222e-13, cumulative = -1.63008e-09
smoothSolver:  Solving for epsilon, Initial residual = 0.000185393, Final residual = 1.28084e-07, No Iterations 1
smoothSolver:  Solving for k, Initial residual = 0.00543006, Final residual = 3.15346e-06, No Iterations 1
ExecutionTime = 124.59 s  ClockTime = 127 s

Time = 1.175

Courant Number mean: 0.0378158 max: 0.293939
smoothSolver:  Solving for Ux, Initial residual = 0.00280091, Final residual = 5.57348e-06, No Iterations 1
smoothSolver:  Solving for Uy, Initial residual = 0.00280102, Final residual = 5.57466e-06, No Iterations 1
smoothSolver:  Solving for Uz, Initial residual = 0.0054879, Final residual = 1.83527e-06, No Iterations 1
DICPCG:  Solving for p, Initial residual = 0.000457309, Final residual = 1.63849e-05, No Iterations 2
time step continuity errors : sum local = 8.82746e-11, global = -4.93475e-12, cumulative = -1.63502e-09
DICPCG:  Solving for p, Initial residual = 3.03708e-05, Final residual = 8.74746e-07, No Iterations 465
time step continuity errors : sum local = 4.71258e-12, global = -1.64414e-13, cumulative = -1.63518e-09
smoothSolver:  Solving for epsilon, Initial residual = 0.00018365, Final residual = 1.26825e-07, No Iterations 1
smoothSolver:  Solving for k, Initial residual = 0.00531763, Final residual = 3.0821e-06, No Iterations 1
ExecutionTime = 127.33 s  ClockTime = 130 s

Time = 1.2

Courant Number mean: 0.0378156 max: 0.293984
smoothSolver:  Solving for Ux, Initial residual = 0.00276818, Final residual = 5.53394e-06, No Iterations 1
smoothSolver:  Solving for Uy, Initial residual = 0.0027683, Final residual = 5.53471e-06, No Iterations 1
smoothSolver:  Solving for Uz, Initial residual = 0.00538074, Final residual = 1.79704e-06, No Iterations 1
DICPCG:  Solving for p, Initial residual = 0.000438, Final residual = 1.50955e-05, No Iterations 2
time step continuity errors : sum local = 8.14291e-11, global = -4.99441e-12, cumulative = -1.64017e-09
DICPCG:  Solving for p, Initial residual = 2.90778e-05, Final residual = 8.388e-07, No Iterations 465
time step continuity errors : sum local = 4.52456e-12, global = -1.62898e-13, cumulative = -1.64034e-09
smoothSolver:  Solving for epsilon, Initial residual = 0.000181916, Final residual = 1.26159e-07, No Iterations 1
smoothSolver:  Solving for k, Initial residual = 0.0052098, Final residual = 3.01696e-06, No Iterations 1
ExecutionTime = 129.94 s  ClockTime = 133 s

Time = 1.225

Courant Number mean: 0.0378153 max: 0.294017
smoothSolver:  Solving for Ux, Initial residual = 0.00273663, Final residual = 5.47825e-06, No Iterations 1
smoothSolver:  Solving for Uy, Initial residual = 0.00273678, Final residual = 5.47894e-06, No Iterations 1
smoothSolver:  Solving for Uz, Initial residual = 0.00527776, Final residual = 1.76067e-06, No Iterations 1
DICPCG:  Solving for p, Initial residual = 0.000427722, Final residual = 1.46152e-05, No Iterations 2
time step continuity errors : sum local = 7.8936e-11, global = -4.93245e-12, cumulative = -1.64527e-09
DICPCG:  Solving for p, Initial residual = 2.85931e-05, Final residual = 8.41011e-07, No Iterations 465
time step continuity errors : sum local = 4.54212e-12, global = -1.48033e-13, cumulative = -1.64542e-09
smoothSolver:  Solving for epsilon, Initial residual = 0.00018022, Final residual = 1.24171e-07, No Iterations 1
smoothSolver:  Solving for k, Initial residual = 0.0051063, Final residual = 2.9602e-06, No Iterations 1
ExecutionTime = 132.7 s  ClockTime = 136 s

Time = 1.25

Courant Number mean: 0.0378151 max: 0.29404
smoothSolver:  Solving for Ux, Initial residual = 0.00270594, Final residual = 5.42898e-06, No Iterations 1
smoothSolver:  Solving for Uy, Initial residual = 0.00270607, Final residual = 5.42929e-06, No Iterations 1
smoothSolver:  Solving for Uz, Initial residual = 0.00517874, Final residual = 1.72564e-06, No Iterations 1
DICPCG:  Solving for p, Initial residual = 0.000414339, Final residual = 1.48926e-05, No Iterations 2
time step continuity errors : sum local = 8.05333e-11, global = -4.68446e-12, cumulative = -1.6501e-09
DICPCG:  Solving for p, Initial residual = 2.83362e-05, Final residual = 9.52659e-07, No Iterations 464
time step continuity errors : sum local = 5.15144e-12, global = -1.59506e-13, cumulative = -1.65026e-09
smoothSolver:  Solving for epsilon, Initial residual = 0.000178601, Final residual = 1.23964e-07, No Iterations 1
smoothSolver:  Solving for k, Initial residual = 0.00500684, Final residual = 2.89348e-06, No Iterations 1
ExecutionTime = 135.43 s  ClockTime = 138 s

Time = 1.275

Courant Number mean: 0.0378148 max: 0.294051
smoothSolver:  Solving for Ux, Initial residual = 0.00267383, Final residual = 5.37655e-06, No Iterations 1
smoothSolver:  Solving for Uy, Initial residual = 0.00267408, Final residual = 5.37716e-06, No Iterations 1
smoothSolver:  Solving for Uz, Initial residual = 0.00508345, Final residual = 1.69201e-06, No Iterations 1
DICPCG:  Solving for p, Initial residual = 0.00040733, Final residual = 1.47153e-05, No Iterations 2
time step continuity errors : sum local = 7.96725e-11, global = -4.60954e-12, cumulative = -1.65487e-09
DICPCG:  Solving for p, Initial residual = 2.81729e-05, Final residual = 9.46964e-07, No Iterations 464
time step continuity errors : sum local = 5.12696e-12, global = -1.43173e-13, cumulative = -1.65501e-09
smoothSolver:  Solving for epsilon, Initial residual = 0.000177006, Final residual = 1.22669e-07, No Iterations 1
smoothSolver:  Solving for k, Initial residual = 0.00491122, Final residual = 2.82887e-06, No Iterations 1
ExecutionTime = 138.05 s  ClockTime = 141 s

Time = 1.3

Courant Number mean: 0.0378146 max: 0.294051
smoothSolver:  Solving for Ux, Initial residual = 0.00264226, Final residual = 5.31579e-06, No Iterations 1
smoothSolver:  Solving for Uy, Initial residual = 0.00264249, Final residual = 5.3168e-06, No Iterations 1
smoothSolver:  Solving for Uz, Initial residual = 0.00499163, Final residual = 1.65952e-06, No Iterations 1
DICPCG:  Solving for p, Initial residual = 0.000399822, Final residual = 1.47481e-05, No Iterations 2
time step continuity errors : sum local = 7.99483e-11, global = -4.39079e-12, cumulative = -1.65941e-09
DICPCG:  Solving for p, Initial residual = 2.81099e-05, Final residual = 8.84144e-07, No Iterations 464
time step continuity errors : sum local = 4.79278e-12, global = -1.29672e-13, cumulative = -1.65953e-09
smoothSolver:  Solving for epsilon, Initial residual = 0.000175434, Final residual = 1.21397e-07, No Iterations 1
smoothSolver:  Solving for k, Initial residual = 0.00481919, Final residual = 2.75083e-06, No Iterations 1
ExecutionTime = 140.83 s  ClockTime = 144 s

Time = 1.325

Courant Number mean: 0.0378143 max: 0.29404
smoothSolver:  Solving for Ux, Initial residual = 0.00261211, Final residual = 5.25596e-06, No Iterations 1
smoothSolver:  Solving for Uy, Initial residual = 0.00261242, Final residual = 5.25677e-06, No Iterations 1
smoothSolver:  Solving for Uz, Initial residual = 0.00490313, Final residual = 1.6284e-06, No Iterations 1
DICPCG:  Solving for p, Initial residual = 0.000391894, Final residual = 1.37297e-05, No Iterations 2
time step continuity errors : sum local = 7.45188e-11, global = -4.04824e-12, cumulative = -1.66358e-09
DICPCG:  Solving for p, Initial residual = 2.71968e-05, Final residual = 8.76665e-07, No Iterations 464
time step continuity errors : sum local = 4.75805e-12, global = -1.19855e-13, cumulative = -1.6637e-09
smoothSolver:  Solving for epsilon, Initial residual = 0.00017393, Final residual = 1.20261e-07, No Iterations 1
smoothSolver:  Solving for k, Initial residual = 0.00473055, Final residual = 2.68616e-06, No Iterations 1
ExecutionTime = 143.4 s  ClockTime = 146 s

Time = 1.35

Courant Number mean: 0.0378141 max: 0.294019
smoothSolver:  Solving for Ux, Initial residual = 0.00258312, Final residual = 5.18407e-06, No Iterations 1
smoothSolver:  Solving for Uy, Initial residual = 0.00258332, Final residual = 5.18444e-06, No Iterations 1
smoothSolver:  Solving for Uz, Initial residual = 0.00481776, Final residual = 1.59855e-06, No Iterations 1
DICPCG:  Solving for p, Initial residual = 0.000388949, Final residual = 1.30092e-05, No Iterations 2
time step continuity errors : sum local = 7.06939e-11, global = -3.3722e-12, cumulative = -1.66707e-09
DICPCG:  Solving for p, Initial residual = 2.67668e-05, Final residual = 9.64921e-07, No Iterations 463
time step continuity errors : sum local = 5.24336e-12, global = -1.33739e-13, cumulative = -1.66721e-09
smoothSolver:  Solving for epsilon, Initial residual = 0.000172423, Final residual = 1.1957e-07, No Iterations 1
smoothSolver:  Solving for k, Initial residual = 0.0046451, Final residual = 2.6195e-06, No Iterations 1
ExecutionTime = 146.23 s  ClockTime = 149 s

Time = 1.375

Courant Number mean: 0.0378138 max: 0.29399
smoothSolver:  Solving for Ux, Initial residual = 0.00255496, Final residual = 5.10515e-06, No Iterations 1
smoothSolver:  Solving for Uy, Initial residual = 0.00255521, Final residual = 5.10539e-06, No Iterations 1
smoothSolver:  Solving for Uz, Initial residual = 0.00473534, Final residual = 1.56968e-06, No Iterations 1
DICPCG:  Solving for p, Initial residual = 0.0003905, Final residual = 1.3686e-05, No Iterations 2
time step continuity errors : sum local = 7.44603e-11, global = -3.19022e-12, cumulative = -1.6704e-09
DICPCG:  Solving for p, Initial residual = 2.74459e-05, Final residual = 8.5203e-07, No Iterations 464
time step continuity errors : sum local = 4.63542e-12, global = -1.1477e-13, cumulative = -1.67051e-09
smoothSolver:  Solving for epsilon, Initial residual = 0.000170932, Final residual = 1.1775e-07, No Iterations 1
smoothSolver:  Solving for k, Initial residual = 0.00456269, Final residual = 2.57467e-06, No Iterations 1
ExecutionTime = 149.04 s  ClockTime = 152 s

Time = 1.4

Courant Number mean: 0.0378136 max: 0.293952
smoothSolver:  Solving for Ux, Initial residual = 0.002529, Final residual = 5.01742e-06, No Iterations 1
smoothSolver:  Solving for Uy, Initial residual = 0.00252918, Final residual = 5.01759e-06, No Iterations 1
smoothSolver:  Solving for Uz, Initial residual = 0.00465573, Final residual = 1.54197e-06, No Iterations 1
DICPCG:  Solving for p, Initial residual = 0.000378869, Final residual = 1.29303e-05, No Iterations 2
time step continuity errors : sum local = 7.04326e-11, global = -3.0146e-12, cumulative = -1.67353e-09
DICPCG:  Solving for p, Initial residual = 2.67109e-05, Final residual = 8.6734e-07, No Iterations 463
time step continuity errors : sum local = 4.72441e-12, global = -1.09042e-13, cumulative = -1.67364e-09
smoothSolver:  Solving for epsilon, Initial residual = 0.000169484, Final residual = 1.16902e-07, No Iterations 1
smoothSolver:  Solving for k, Initial residual = 0.00448315, Final residual = 2.52481e-06, No Iterations 1
ExecutionTime = 151.71 s  ClockTime = 155 s

Time = 1.425

Courant Number mean: 0.0378133 max: 0.293908
smoothSolver:  Solving for Ux, Initial residual = 0.00250253, Final residual = 4.93385e-06, No Iterations 1
smoothSolver:  Solving for Uy, Initial residual = 0.00250269, Final residual = 4.93444e-06, No Iterations 1
smoothSolver:  Solving for Uz, Initial residual = 0.00457877, Final residual = 1.5153e-06, No Iterations 1
DICPCG:  Solving for p, Initial residual = 0.000369546, Final residual = 1.3275e-05, No Iterations 2
time step continuity errors : sum local = 7.23979e-11, global = -2.95698e-12, cumulative = -1.67659e-09
DICPCG:  Solving for p, Initial residual = 2.69276e-05, Final residual = 9.17002e-07, No Iterations 463
time step continuity errors : sum local = 5.001e-12, global = -1.11827e-13, cumulative = -1.67671e-09
smoothSolver:  Solving for epsilon, Initial residual = 0.000168094, Final residual = 1.15476e-07, No Iterations 1
smoothSolver:  Solving for k, Initial residual = 0.00440633, Final residual = 2.46489e-06, No Iterations 1
ExecutionTime = 154.39 s  ClockTime = 158 s

Time = 1.45

Courant Number mean: 0.0378131 max: 0.293858
smoothSolver:  Solving for Ux, Initial residual = 0.0024761, Final residual = 4.83165e-06, No Iterations 1
smoothSolver:  Solving for Uy, Initial residual = 0.00247622, Final residual = 4.83188e-06, No Iterations 1
smoothSolver:  Solving for Uz, Initial residual = 0.00450432, Final residual = 1.48955e-06, No Iterations 1
DICPCG:  Solving for p, Initial residual = 0.000358885, Final residual = 1.32604e-05, No Iterations 2
time step continuity errors : sum local = 7.24057e-11, global = -1.97841e-12, cumulative = -1.67868e-09
DICPCG:  Solving for p, Initial residual = 2.67727e-05, Final residual = 9.11861e-07, No Iterations 462
time step continuity errors : sum local = 4.97901e-12, global = -1.36269e-13, cumulative = -1.67882e-09
smoothSolver:  Solving for epsilon, Initial residual = 0.00016671, Final residual = 1.13523e-07, No Iterations 1
smoothSolver:  Solving for k, Initial residual = 0.00433206, Final residual = 2.40838e-06, No Iterations 1
ExecutionTime = 157.08 s  ClockTime = 160 s

Time = 1.475

Courant Number mean: 0.0378128 max: 0.293804
smoothSolver:  Solving for Ux, Initial residual = 0.00245136, Final residual = 4.73143e-06, No Iterations 1
smoothSolver:  Solving for Uy, Initial residual = 0.00245147, Final residual = 4.7319e-06, No Iterations 1
smoothSolver:  Solving for Uz, Initial residual = 0.0044323, Final residual = 1.46439e-06, No Iterations 1
DICPCG:  Solving for p, Initial residual = 0.000355044, Final residual = 1.32178e-05, No Iterations 2
time step continuity errors : sum local = 7.22602e-11, global = -1.36245e-12, cumulative = -1.68018e-09
DICPCG:  Solving for p, Initial residual = 2.67977e-05, Final residual = 9.19703e-07, No Iterations 461
time step continuity errors : sum local = 5.02791e-12, global = -1.53703e-13, cumulative = -1.68034e-09
smoothSolver:  Solving for epsilon, Initial residual = 0.000165324, Final residual = 1.13174e-07, No Iterations 1
smoothSolver:  Solving for k, Initial residual = 0.00426021, Final residual = 2.37888e-06, No Iterations 1
ExecutionTime = 159.58 s  ClockTime = 163 s

Time = 1.5

Courant Number mean: 0.0378126 max: 0.293747
smoothSolver:  Solving for Ux, Initial residual = 0.00242717, Final residual = 4.62459e-06, No Iterations 1
smoothSolver:  Solving for Uy, Initial residual = 0.00242726, Final residual = 4.62518e-06, No Iterations 1
smoothSolver:  Solving for Uz, Initial residual = 0.00436257, Final residual = 1.44001e-06, No Iterations 1
DICPCG:  Solving for p, Initial residual = 0.000350171, Final residual = 1.27616e-05, No Iterations 2
time step continuity errors : sum local = 6.98495e-11, global = -9.55279e-13, cumulative = -1.68129e-09
DICPCG:  Solving for p, Initial residual = 2.59659e-05, Final residual = 8.53872e-07, No Iterations 461
time step continuity errors : sum local = 4.67355e-12, global = -1.43188e-13, cumulative = -1.68144e-09
smoothSolver:  Solving for epsilon, Initial residual = 0.000164017, Final residual = 1.11861e-07, No Iterations 1
smoothSolver:  Solving for k, Initial residual = 0.00419069, Final residual = 2.33324e-06, No Iterations 1
ExecutionTime = 162.3 s  ClockTime = 166 s

Time = 1.525

Courant Number mean: 0.0378124 max: 0.293689
smoothSolver:  Solving for Ux, Initial residual = 0.00240461, Final residual = 4.53252e-06, No Iterations 1
smoothSolver:  Solving for Uy, Initial residual = 0.00240468, Final residual = 4.53299e-06, No Iterations 1
smoothSolver:  Solving for Uz, Initial residual = 0.00429502, Final residual = 1.41645e-06, No Iterations 1
DICPCG:  Solving for p, Initial residual = 0.000344896, Final residual = 1.31665e-05, No Iterations 2
time step continuity errors : sum local = 7.21506e-11, global = -7.22022e-13, cumulative = -1.68216e-09
DICPCG:  Solving for p, Initial residual = 2.64335e-05, Final residual = 9.44041e-07, No Iterations 460
time step continuity errors : sum local = 5.17319e-12, global = -1.62825e-13, cumulative = -1.68232e-09
smoothSolver:  Solving for epsilon, Initial residual = 0.000162707, Final residual = 1.10508e-07, No Iterations 1
smoothSolver:  Solving for k, Initial residual = 0.0041234, Final residual = 2.29153e-06, No Iterations 1
ExecutionTime = 164.8 s  ClockTime = 168 s

Time = 1.55

Courant Number mean: 0.0378121 max: 0.293631
smoothSolver:  Solving for Ux, Initial residual = 0.00238315, Final residual = 4.44732e-06, No Iterations 1
smoothSolver:  Solving for Uy, Initial residual = 0.00238326, Final residual = 4.44768e-06, No Iterations 1
smoothSolver:  Solving for Uz, Initial residual = 0.00422957, Final residual = 1.39372e-06, No Iterations 1
DICPCG:  Solving for p, Initial residual = 0.000338954, Final residual = 1.34286e-05, No Iterations 2
time step continuity errors : sum local = 7.36747e-11, global = -5.0453e-14, cumulative = -1.68237e-09
DICPCG:  Solving for p, Initial residual = 2.61529e-05, Final residual = 9.83365e-07, No Iterations 460
time step continuity errors : sum local = 5.39514e-12, global = -1.88839e-13, cumulative = -1.68256e-09
smoothSolver:  Solving for epsilon, Initial residual = 0.00016144, Final residual = 1.09909e-07, No Iterations 1
smoothSolver:  Solving for k, Initial residual = 0.00405823, Final residual = 2.24702e-06, No Iterations 1
ExecutionTime = 167.41 s  ClockTime = 171 s

Time = 1.575

Courant Number mean: 0.0378119 max: 0.293573
smoothSolver:  Solving for Ux, Initial residual = 0.0023615, Final residual = 4.35746e-06, No Iterations 1
smoothSolver:  Solving for Uy, Initial residual = 0.00236174, Final residual = 4.35839e-06, No Iterations 1
smoothSolver:  Solving for Uz, Initial residual = 0.0041661, Final residual = 1.37152e-06, No Iterations 1
DICPCG:  Solving for p, Initial residual = 0.000349611, Final residual = 1.31121e-05, No Iterations 2
time step continuity errors : sum local = 7.20232e-11, global = 1.38379e-13, cumulative = -1.68242e-09
DICPCG:  Solving for p, Initial residual = 2.66744e-05, Final residual = 9.74884e-07, No Iterations 460
time step continuity errors : sum local = 5.35492e-12, global = -1.36507e-13, cumulative = -1.68256e-09
smoothSolver:  Solving for epsilon, Initial residual = 0.000160195, Final residual = 1.09435e-07, No Iterations 1
smoothSolver:  Solving for k, Initial residual = 0.00399508, Final residual = 2.21572e-06, No Iterations 1
ExecutionTime = 170.04 s  ClockTime = 173 s

Time = 1.6

Courant Number mean: 0.0378116 max: 0.293517
smoothSolver:  Solving for Ux, Initial residual = 0.00234152, Final residual = 4.25715e-06, No Iterations 1
smoothSolver:  Solving for Uy, Initial residual = 0.00234173, Final residual = 4.25757e-06, No Iterations 1
smoothSolver:  Solving for Uz, Initial residual = 0.00410455, Final residual = 1.34987e-06, No Iterations 1
DICPCG:  Solving for p, Initial residual = 0.000329705, Final residual = 1.26092e-05, No Iterations 2
time step continuity errors : sum local = 6.93419e-11, global = 1.12706e-12, cumulative = -1.68143e-09
DICPCG:  Solving for p, Initial residual = 2.49856e-05, Final residual = 8.42569e-07, No Iterations 459
time step continuity errors : sum local = 4.63355e-12, global = -9.79999e-14, cumulative = -1.68153e-09
smoothSolver:  Solving for epsilon, Initial residual = 0.000158977, Final residual = 1.08242e-07, No Iterations 1
smoothSolver:  Solving for k, Initial residual = 0.00393385, Final residual = 2.17766e-06, No Iterations 1
ExecutionTime = 172.63 s  ClockTime = 176 s

Time = 1.625

Courant Number mean: 0.0378114 max: 0.293465
smoothSolver:  Solving for Ux, Initial residual = 0.00232092, Final residual = 4.16362e-06, No Iterations 1
smoothSolver:  Solving for Uy, Initial residual = 0.00232114, Final residual = 4.16451e-06, No Iterations 1
smoothSolver:  Solving for Uz, Initial residual = 0.0040448, Final residual = 1.32912e-06, No Iterations 1
DICPCG:  Solving for p, Initial residual = 0.000337753, Final residual = 1.28498e-05, No Iterations 2
time step continuity errors : sum local = 7.07474e-11, global = 6.60476e-13, cumulative = -1.68087e-09
DICPCG:  Solving for p, Initial residual = 2.56464e-05, Final residual = 9.87109e-07, No Iterations 459
time step continuity errors : sum local = 5.4347e-12, global = -8.44258e-14, cumulative = -1.68095e-09
smoothSolver:  Solving for epsilon, Initial residual = 0.000157789, Final residual = 1.0722e-07, No Iterations 1
smoothSolver:  Solving for k, Initial residual = 0.00387446, Final residual = 2.1385e-06, No Iterations 1
ExecutionTime = 175.3 s  ClockTime = 179 s

Time = 1.65

Courant Number mean: 0.0378111 max: 0.293415
smoothSolver:  Solving for Ux, Initial residual = 0.00229968, Final residual = 4.08111e-06, No Iterations 1
smoothSolver:  Solving for Uy, Initial residual = 0.00229988, Final residual = 4.08149e-06, No Iterations 1
smoothSolver:  Solving for Uz, Initial residual = 0.00398697, Final residual = 1.30922e-06, No Iterations 1
DICPCG:  Solving for p, Initial residual = 0.000333918, Final residual = 1.33071e-05, No Iterations 2
time step continuity errors : sum local = 7.33496e-11, global = 7.91802e-13, cumulative = -1.68016e-09
DICPCG:  Solving for p, Initial residual = 2.60654e-05, Final residual = 8.56546e-07, No Iterations 460
time step continuity errors : sum local = 4.72137e-12, global = -8.02018e-14, cumulative = -1.68024e-09
smoothSolver:  Solving for epsilon, Initial residual = 0.000156597, Final residual = 1.06238e-07, No Iterations 1
smoothSolver:  Solving for k, Initial residual = 0.00381681, Final residual = 2.10646e-06, No Iterations 1
ExecutionTime = 177.9 s  ClockTime = 181 s

Time = 1.675

Courant Number mean: 0.0378109 max: 0.29337
smoothSolver:  Solving for Ux, Initial residual = 0.0022813, Final residual = 3.99903e-06, No Iterations 1
smoothSolver:  Solving for Uy, Initial residual = 0.00228148, Final residual = 3.99959e-06, No Iterations 1
smoothSolver:  Solving for Uz, Initial residual = 0.00393111, Final residual = 1.29e-06, No Iterations 1
DICPCG:  Solving for p, Initial residual = 0.000326412, Final residual = 1.25763e-05, No Iterations 2
time step continuity errors : sum local = 6.94009e-11, global = 3.78572e-13, cumulative = -1.67986e-09
DICPCG:  Solving for p, Initial residual = 2.49133e-05, Final residual = 8.35649e-07, No Iterations 457
time step continuity errors : sum local = 4.61141e-12, global = -5.83513e-15, cumulative = -1.67987e-09
smoothSolver:  Solving for epsilon, Initial residual = 0.000155444, Final residual = 1.05118e-07, No Iterations 1
smoothSolver:  Solving for k, Initial residual = 0.00376082, Final residual = 2.06225e-06, No Iterations 1
ExecutionTime = 180.5 s  ClockTime = 184 s

Time = 1.7

Courant Number mean: 0.0378106 max: 0.29333
smoothSolver:  Solving for Ux, Initial residual = 0.00226196, Final residual = 3.9206e-06, No Iterations 1
smoothSolver:  Solving for Uy, Initial residual = 0.00226211, Final residual = 3.92161e-06, No Iterations 1
smoothSolver:  Solving for Uz, Initial residual = 0.00387683, Final residual = 1.27121e-06, No Iterations 1
DICPCG:  Solving for p, Initial residual = 0.000323343, Final residual = 1.3212e-05, No Iterations 2
time step continuity errors : sum local = 7.29916e-11, global = 1.27357e-12, cumulative = -1.67859e-09
DICPCG:  Solving for p, Initial residual = 2.55385e-05, Final residual = 8.40963e-07, No Iterations 459
time step continuity errors : sum local = 4.64599e-12, global = -7.95366e-14, cumulative = -1.67867e-09
smoothSolver:  Solving for epsilon, Initial residual = 0.00015431, Final residual = 1.03981e-07, No Iterations 1
smoothSolver:  Solving for k, Initial residual = 0.00370641, Final residual = 2.03972e-06, No Iterations 1
ExecutionTime = 183.05 s  ClockTime = 186 s

Time = 1.725

Courant Number mean: 0.0378104 max: 0.293295
smoothSolver:  Solving for Ux, Initial residual = 0.00224334, Final residual = 3.85953e-06, No Iterations 1
smoothSolver:  Solving for Uy, Initial residual = 0.00224353, Final residual = 3.86048e-06, No Iterations 1
smoothSolver:  Solving for Uz, Initial residual = 0.00382407, Final residual = 1.25275e-06, No Iterations 1
DICPCG:  Solving for p, Initial residual = 0.000300795, Final residual = 1.23811e-05, No Iterations 2
time step continuity errors : sum local = 6.84797e-11, global = 9.8933e-13, cumulative = -1.67768e-09
DICPCG:  Solving for p, Initial residual = 2.39209e-05, Final residual = 8.12271e-07, No Iterations 459
time step continuity errors : sum local = 4.49272e-12, global = -6.82898e-14, cumulative = -1.67775e-09
smoothSolver:  Solving for epsilon, Initial residual = 0.000153191, Final residual = 1.02778e-07, No Iterations 1
smoothSolver:  Solving for k, Initial residual = 0.00365353, Final residual = 2.00995e-06, No Iterations 1
ExecutionTime = 185.59 s  ClockTime = 189 s

Time = 1.75

Courant Number mean: 0.0378101 max: 0.293265
smoothSolver:  Solving for Ux, Initial residual = 0.00222567, Final residual = 3.80809e-06, No Iterations 1
smoothSolver:  Solving for Uy, Initial residual = 0.00222582, Final residual = 3.80874e-06, No Iterations 1
smoothSolver:  Solving for Uz, Initial residual = 0.00377279, Final residual = 1.23472e-06, No Iterations 1
DICPCG:  Solving for p, Initial residual = 0.000296133, Final residual = 1.23527e-05, No Iterations 2
time step continuity errors : sum local = 6.84014e-11, global = 6.45119e-13, cumulative = -1.67711e-09
DICPCG:  Solving for p, Initial residual = 2.37896e-05, Final residual = 8.61265e-07, No Iterations 456
time step continuity errors : sum local = 4.76919e-12, global = -1.02311e-13, cumulative = -1.67721e-09
smoothSolver:  Solving for epsilon, Initial residual = 0.000152101, Final residual = 1.02232e-07, No Iterations 1
smoothSolver:  Solving for k, Initial residual = 0.00360208, Final residual = 1.96933e-06, No Iterations 1
ExecutionTime = 188.17 s  ClockTime = 192 s

Time = 1.775

Courant Number mean: 0.0378099 max: 0.29324
smoothSolver:  Solving for Ux, Initial residual = 0.00220898, Final residual = 3.75319e-06, No Iterations 1
smoothSolver:  Solving for Uy, Initial residual = 0.00220903, Final residual = 3.75377e-06, No Iterations 1
smoothSolver:  Solving for Uz, Initial residual = 0.00372291, Final residual = 1.21716e-06, No Iterations 1
DICPCG:  Solving for p, Initial residual = 0.000294401, Final residual = 1.26878e-05, No Iterations 2
time step continuity errors : sum local = 7.03371e-11, global = 2.50246e-14, cumulative = -1.67719e-09
DICPCG:  Solving for p, Initial residual = 2.38341e-05, Final residual = 8.46904e-07, No Iterations 460
time step continuity errors : sum local = 4.695e-12, global = -6.6906e-15, cumulative = -1.67719e-09
smoothSolver:  Solving for epsilon, Initial residual = 0.00015102, Final residual = 1.00791e-07, No Iterations 1
smoothSolver:  Solving for k, Initial residual = 0.00355203, Final residual = 1.94633e-06, No Iterations 1
ExecutionTime = 190.78 s  ClockTime = 194 s

Time = 1.8

Courant Number mean: 0.0378096 max: 0.29322
smoothSolver:  Solving for Ux, Initial residual = 0.00219295, Final residual = 3.69592e-06, No Iterations 1
smoothSolver:  Solving for Uy, Initial residual = 0.00219307, Final residual = 3.6964e-06, No Iterations 1
smoothSolver:  Solving for Uz, Initial residual = 0.00367437, Final residual = 1.20008e-06, No Iterations 1
DICPCG:  Solving for p, Initial residual = 0.000283758, Final residual = 1.24353e-05, No Iterations 2
time step continuity errors : sum local = 6.90156e-11, global = -1.98785e-13, cumulative = -1.67739e-09
DICPCG:  Solving for p, Initial residual = 2.30205e-05, Final residual = 9.96461e-07, No Iterations 459
time step continuity errors : sum local = 5.5304e-12, global = -9.55551e-14, cumulative = -1.67749e-09
smoothSolver:  Solving for epsilon, Initial residual = 0.000149953, Final residual = 1.00055e-07, No Iterations 1
smoothSolver:  Solving for k, Initial residual = 0.0035033, Final residual = 1.91544e-06, No Iterations 1
ExecutionTime = 193.49 s  ClockTime = 197 s

Time = 1.825

Courant Number mean: 0.0378094 max: 0.293206
smoothSolver:  Solving for Ux, Initial residual = 0.00217687, Final residual = 3.63666e-06, No Iterations 1
smoothSolver:  Solving for Uy, Initial residual = 0.00217703, Final residual = 3.6374e-06, No Iterations 1
smoothSolver:  Solving for Uz, Initial residual = 0.0036271, Final residual = 1.1834e-06, No Iterations 1
DICPCG:  Solving for p, Initial residual = 0.000279385, Final residual = 1.23275e-05, No Iterations 2
time step continuity errors : sum local = 6.84951e-11, global = -5.07309e-13, cumulative = -1.67799e-09
DICPCG:  Solving for p, Initial residual = 2.30159e-05, Final residual = 9.75037e-07, No Iterations 460
time step continuity errors : sum local = 5.41766e-12, global = -9.21245e-14, cumulative = -1.67809e-09
smoothSolver:  Solving for epsilon, Initial residual = 0.000148913, Final residual = 9.85515e-08, No Iterations 1
smoothSolver:  Solving for k, Initial residual = 0.00345585, Final residual = 1.89554e-06, No Iterations 1
ExecutionTime = 195.98 s  ClockTime = 199 s

Time = 1.85

Courant Number mean: 0.0378091 max: 0.293196
smoothSolver:  Solving for Ux, Initial residual = 0.00216144, Final residual = 3.57855e-06, No Iterations 1
[...]
smoothSolver:  Solving for epsilon, Initial residual = 7.17356e-05, Final residual = 4.3779e-08, No Iterations 1
smoothSolver:  Solving for k, Initial residual = 0.00105102, Final residual = 5.62061e-07, No Iterations 1
ExecutionTime = 528.82 s  ClockTime = 544 s

Time = 5.65

Courant Number mean: 0.0377698 max: 0.293315
smoothSolver:  Solving for Ux, Initial residual = 0.0012857, Final residual = 1.01682e-06, No Iterations 1
smoothSolver:  Solving for Uy, Initial residual = 0.00128603, Final residual = 1.01684e-06, No Iterations 1
smoothSolver:  Solving for Uz, Initial residual = 0.00125268, Final residual = 3.77476e-07, No Iterations 1
DICPCG:  Solving for p, Initial residual = 6.37626e-05, Final residual = 2.69506e-06, No Iterations 3
time step continuity errors : sum local = 1.6569e-11, global = -1.27597e-12, cumulative = -1.88165e-09
DICPCG:  Solving for p, Initial residual = 7.16934e-06, Final residual = 9.63926e-07, No Iterations 453
time step continuity errors : sum local = 5.92616e-12, global = -7.31448e-14, cumulative = -1.88172e-09
smoothSolver:  Solving for epsilon, Initial residual = 7.14509e-05, Final residual = 4.35511e-08, No Iterations 1
smoothSolver:  Solving for k, Initial residual = 0.00104569, Final residual = 5.58365e-07, No Iterations 1
ExecutionTime = 531.22 s  ClockTime = 546 s

Time = 5.675

Courant Number mean: 0.0377696 max: 0.293315
smoothSolver:  Solving for Ux, Initial residual = 0.00128239, Final residual = 1.01218e-06, No Iterations 1
smoothSolver:  Solving for Uy, Initial residual = 0.00128249, Final residual = 1.01232e-06, No Iterations 1
smoothSolver:  Solving for Uz, Initial residual = 0.00124758, Final residual = 3.75808e-07, No Iterations 1
DICPCG:  Solving for p, Initial residual = 6.46624e-05, Final residual = 2.76009e-06, No Iterations 3
time step continuity errors : sum local = 1.69819e-11, global = -7.62897e-13, cumulative = -1.88248e-09
DICPCG:  Solving for p, Initial residual = 7.1939e-06, Final residual = 9.85673e-07, No Iterations 5
time step continuity errors : sum local = 6.06453e-12, global = -1.86433e-14, cumulative = -1.8825e-09
smoothSolver:  Solving for epsilon, Initial residual = 7.11766e-05, Final residual = 4.33828e-08, No Iterations 1
smoothSolver:  Solving for k, Initial residual = 0.00104042, Final residual = 5.56281e-07, No Iterations 1
ExecutionTime = 531.67 s  ClockTime = 546 s

Time = 5.7

Courant Number mean: 0.0377693 max: 0.293315
smoothSolver:  Solving for Ux, Initial residual = 0.00127687, Final residual = 1.00648e-06, No Iterations 1
smoothSolver:  Solving for Uy, Initial residual = 0.00127689, Final residual = 1.00632e-06, No Iterations 1
smoothSolver:  Solving for Uz, Initial residual = 0.00124212, Final residual = 3.74059e-07, No Iterations 1
DICPCG:  Solving for p, Initial residual = 6.26498e-05, Final residual = 2.82745e-06, No Iterations 3
time step continuity errors : sum local = 1.73969e-11, global = -9.28441e-13, cumulative = -1.88343e-09
DICPCG:  Solving for p, Initial residual = 7.19438e-06, Final residual = 9.93905e-07, No Iterations 457
time step continuity errors : sum local = 6.11537e-12, global = -3.93494e-14, cumulative = -1.88347e-09
smoothSolver:  Solving for epsilon, Initial residual = 7.08952e-05, Final residual = 4.31854e-08, No Iterations 1
smoothSolver:  Solving for k, Initial residual = 0.00103519, Final residual = 5.51682e-07, No Iterations 1
ExecutionTime = 534.18 s  ClockTime = 549 s

Time = 5.725

Courant Number mean: 0.037769 max: 0.293315
smoothSolver:  Solving for Ux, Initial residual = 0.00127376, Final residual = 1.00075e-06, No Iterations 1
smoothSolver:  Solving for Uy, Initial residual = 0.00127383, Final residual = 1.00044e-06, No Iterations 1
smoothSolver:  Solving for Uz, Initial residual = 0.001237, Final residual = 3.72388e-07, No Iterations 1
DICPCG:  Solving for p, Initial residual = 6.28435e-05, Final residual = 2.71991e-06, No Iterations 3
time step continuity errors : sum local = 1.67448e-11, global = -7.41835e-13, cumulative = -1.88421e-09
DICPCG:  Solving for p, Initial residual = 7.09208e-06, Final residual = 9.20834e-07, No Iterations 5
time step continuity errors : sum local = 5.66903e-12, global = -4.91577e-14, cumulative = -1.88426e-09
smoothSolver:  Solving for epsilon, Initial residual = 7.06166e-05, Final residual = 4.2976e-08, No Iterations 1
smoothSolver:  Solving for k, Initial residual = 0.00103001, Final residual = 5.47981e-07, No Iterations 1
ExecutionTime = 534.61 s  ClockTime = 549 s

Time = 5.75

Courant Number mean: 0.0377688 max: 0.293315
smoothSolver:  Solving for Ux, Initial residual = 0.00126855, Final residual = 9.94372e-07, No Iterations 1
smoothSolver:  Solving for Uy, Initial residual = 0.00126864, Final residual = 9.94031e-07, No Iterations 1
smoothSolver:  Solving for Uz, Initial residual = 0.00123162, Final residual = 3.70669e-07, No Iterations 1
DICPCG:  Solving for p, Initial residual = 6.14564e-05, Final residual = 2.70432e-06, No Iterations 3
time step continuity errors : sum local = 1.66494e-11, global = -9.45294e-13, cumulative = -1.88521e-09
DICPCG:  Solving for p, Initial residual = 7.0766e-06, Final residual = 8.5945e-07, No Iterations 455
time step continuity errors : sum local = 5.29131e-12, global = 3.07556e-15, cumulative = -1.8852e-09
smoothSolver:  Solving for epsilon, Initial residual = 7.0346e-05, Final residual = 4.28077e-08, No Iterations 1
smoothSolver:  Solving for k, Initial residual = 0.00102487, Final residual = 5.4465e-07, No Iterations 1
ExecutionTime = 537.37 s  ClockTime = 552 s

Time = 5.775

Courant Number mean: 0.0377685 max: 0.293315
smoothSolver:  Solving for Ux, Initial residual = 0.00126591, Final residual = 9.88199e-07, No Iterations 1
smoothSolver:  Solving for Uy, Initial residual = 0.00126606, Final residual = 9.8803e-07, No Iterations 1
smoothSolver:  Solving for Uz, Initial residual = 0.00122669, Final residual = 3.6905e-07, No Iterations 1
DICPCG:  Solving for p, Initial residual = 6.20212e-05, Final residual = 2.44398e-06, No Iterations 3
time step continuity errors : sum local = 1.5058e-11, global = -5.41928e-13, cumulative = -1.88575e-09
DICPCG:  Solving for p, Initial residual = 6.89711e-06, Final residual = 9.84397e-07, No Iterations 4
time step continuity errors : sum local = 6.06514e-12, global = -3.23162e-14, cumulative = -1.88578e-09
smoothSolver:  Solving for epsilon, Initial residual = 7.00677e-05, Final residual = 4.26185e-08, No Iterations 1
smoothSolver:  Solving for k, Initial residual = 0.00101978, Final residual = 5.4038e-07, No Iterations 1
ExecutionTime = 537.89 s  ClockTime = 553 s

Time = 5.8

Courant Number mean: 0.0377682 max: 0.293315
smoothSolver:  Solving for Ux, Initial residual = 0.00126061, Final residual = 9.80913e-07, No Iterations 1
smoothSolver:  Solving for Uy, Initial residual = 0.00126076, Final residual = 9.8096e-07, No Iterations 1
smoothSolver:  Solving for Uz, Initial residual = 0.0012214, Final residual = 3.67356e-07, No Iterations 1
DICPCG:  Solving for p, Initial residual = 6.05829e-05, Final residual = 2.64324e-06, No Iterations 3
time step continuity errors : sum local = 1.62862e-11, global = -5.34616e-13, cumulative = -1.88631e-09
DICPCG:  Solving for p, Initial residual = 7.00574e-06, Final residual = 9.72011e-07, No Iterations 452
time step continuity errors : sum local = 5.98903e-12, global = -6.21091e-14, cumulative = -1.88637e-09
smoothSolver:  Solving for epsilon, Initial residual = 6.97981e-05, Final residual = 4.24343e-08, No Iterations 1
smoothSolver:  Solving for k, Initial residual = 0.00101474, Final residual = 5.39145e-07, No Iterations 1
ExecutionTime = 540.41 s  ClockTime = 555 s

Time = 5.825

Courant Number mean: 0.037768 max: 0.293315
smoothSolver:  Solving for Ux, Initial residual = 0.00125692, Final residual = 9.74689e-07, No Iterations 1
smoothSolver:  Solving for Uy, Initial residual = 0.00125706, Final residual = 9.74671e-07, No Iterations 1
smoothSolver:  Solving for Uz, Initial residual = 0.00121643, Final residual = 3.65741e-07, No Iterations 1
DICPCG:  Solving for p, Initial residual = 6.04973e-05, Final residual = 2.49511e-06, No Iterations 3
time step continuity errors : sum local = 1.5382e-11, global = -6.8769e-13, cumulative = -1.88706e-09
DICPCG:  Solving for p, Initial residual = 6.83759e-06, Final residual = 9.38144e-07, No Iterations 5
time step continuity errors : sum local = 5.78355e-12, global = -6.8209e-14, cumulative = -1.88713e-09
smoothSolver:  Solving for epsilon, Initial residual = 6.95251e-05, Final residual = 4.22661e-08, No Iterations 1
smoothSolver:  Solving for k, Initial residual = 0.00100974, Final residual = 5.33511e-07, No Iterations 1
ExecutionTime = 540.91 s  ClockTime = 556 s

Time = 5.85

Courant Number mean: 0.0377677 max: 0.293315
smoothSolver:  Solving for Ux, Initial residual = 0.00125175, Final residual = 9.66723e-07, No Iterations 1
smoothSolver:  Solving for Uy, Initial residual = 0.00125192, Final residual = 9.67033e-07, No Iterations 1
smoothSolver:  Solving for Uz, Initial residual = 0.00121123, Final residual = 3.64075e-07, No Iterations 1
DICPCG:  Solving for p, Initial residual = 5.96427e-05, Final residual = 2.5723e-06, No Iterations 3
time step continuity errors : sum local = 1.58584e-11, global = -7.51662e-13, cumulative = -1.88788e-09
DICPCG:  Solving for p, Initial residual = 6.91548e-06, Final residual = 8.40141e-07, No Iterations 456
time step continuity errors : sum local = 5.17954e-12, global = -1.43212e-14, cumulative = -1.8879e-09
smoothSolver:  Solving for epsilon, Initial residual = 6.92568e-05, Final residual = 4.20964e-08, No Iterations 1
smoothSolver:  Solving for k, Initial residual = 0.00100478, Final residual = 5.30994e-07, No Iterations 1
ExecutionTime = 543.47 s  ClockTime = 558 s

Time = 5.875

Courant Number mean: 0.0377674 max: 0.293315
smoothSolver:  Solving for Ux, Initial residual = 0.00124923, Final residual = 9.59163e-07, No Iterations 1
smoothSolver:  Solving for Uy, Initial residual = 0.00124944, Final residual = 9.59193e-07, No Iterations 1
smoothSolver:  Solving for Uz, Initial residual = 0.00120645, Final residual = 3.62506e-07, No Iterations 1
DICPCG:  Solving for p, Initial residual = 5.92516e-05, Final residual = 2.36915e-06, No Iterations 3
time step continuity errors : sum local = 1.46167e-11, global = -3.47966e-13, cumulative = -1.88824e-09
DICPCG:  Solving for p, Initial residual = 6.72096e-06, Final residual = 9.92298e-07, No Iterations 4
time step continuity errors : sum local = 6.12211e-12, global = 2.8015e-14, cumulative = -1.88822e-09
smoothSolver:  Solving for epsilon, Initial residual = 6.89869e-05, Final residual = 4.19127e-08, No Iterations 1
smoothSolver:  Solving for k, Initial residual = 0.000999867, Final residual = 5.28949e-07, No Iterations 1
ExecutionTime = 544.04 s  ClockTime = 559 s

Time = 5.9

Courant Number mean: 0.0377672 max: 0.293316
smoothSolver:  Solving for Ux, Initial residual = 0.00124429, Final residual = 9.50437e-07, No Iterations 1
smoothSolver:  Solving for Uy, Initial residual = 0.00124452, Final residual = 9.50589e-07, No Iterations 1
smoothSolver:  Solving for Uz, Initial residual = 0.00120133, Final residual = 3.60865e-07, No Iterations 1
DICPCG:  Solving for p, Initial residual = 5.88698e-05, Final residual = 2.55777e-06, No Iterations 3
time step continuity errors : sum local = 1.5781e-11, global = -2.00869e-13, cumulative = -1.88842e-09
DICPCG:  Solving for p, Initial residual = 6.86753e-06, Final residual = 9.86732e-07, No Iterations 450
time step continuity errors : sum local = 6.08798e-12, global = -4.70415e-15, cumulative = -1.88842e-09
smoothSolver:  Solving for epsilon, Initial residual = 6.87207e-05, Final residual = 4.17285e-08, No Iterations 1
smoothSolver:  Solving for k, Initial residual = 0.000994997, Final residual = 5.26121e-07, No Iterations 1
ExecutionTime = 546.71 s  ClockTime = 562 s

Time = 5.925

Courant Number mean: 0.0377669 max: 0.293316
smoothSolver:  Solving for Ux, Initial residual = 0.00124094, Final residual = 9.43486e-07, No Iterations 1
smoothSolver:  Solving for Uy, Initial residual = 0.00124113, Final residual = 9.43356e-07, No Iterations 1
smoothSolver:  Solving for Uz, Initial residual = 0.00119652, Final residual = 3.59297e-07, No Iterations 1
DICPCG:  Solving for p, Initial residual = 5.93045e-05, Final residual = 2.46092e-06, No Iterations 3
time step continuity errors : sum local = 1.51914e-11, global = -4.74021e-13, cumulative = -1.8889e-09
DICPCG:  Solving for p, Initial residual = 6.75271e-06, Final residual = 9.5827e-07, No Iterations 5
time step continuity errors : sum local = 5.91549e-12, global = 5.1313e-14, cumulative = -1.88884e-09
smoothSolver:  Solving for epsilon, Initial residual = 6.84557e-05, Final residual = 4.15599e-08, No Iterations 1
smoothSolver:  Solving for k, Initial residual = 0.000990169, Final residual = 5.22251e-07, No Iterations 1
ExecutionTime = 547.18 s  ClockTime = 562 s

Time = 5.95

Courant Number mean: 0.0377666 max: 0.293316
smoothSolver:  Solving for Ux, Initial residual = 0.00123629, Final residual = 9.3567e-07, No Iterations 1
smoothSolver:  Solving for Uy, Initial residual = 0.00123641, Final residual = 9.35557e-07, No Iterations 1
smoothSolver:  Solving for Uz, Initial residual = 0.00119148, Final residual = 3.5768e-07, No Iterations 1
DICPCG:  Solving for p, Initial residual = 5.86674e-05, Final residual = 2.47757e-06, No Iterations 3
time step continuity errors : sum local = 1.52947e-11, global = -4.27805e-13, cumulative = -1.88927e-09
DICPCG:  Solving for p, Initial residual = 6.79654e-06, Final residual = 9.37302e-07, No Iterations 454
time step continuity errors : sum local = 5.78625e-12, global = 2.842e-14, cumulative = -1.88924e-09
smoothSolver:  Solving for epsilon, Initial residual = 6.81859e-05, Final residual = 4.13885e-08, No Iterations 1
smoothSolver:  Solving for k, Initial residual = 0.000985381, Final residual = 5.18749e-07, No Iterations 1
ExecutionTime = 549.78 s  ClockTime = 565 s

Time = 5.975

Courant Number mean: 0.0377664 max: 0.293316
smoothSolver:  Solving for Ux, Initial residual = 0.0012338, Final residual = 9.28693e-07, No Iterations 1
smoothSolver:  Solving for Uy, Initial residual = 0.00123391, Final residual = 9.28523e-07, No Iterations 1
smoothSolver:  Solving for Uz, Initial residual = 0.00118684, Final residual = 3.56159e-07, No Iterations 1
DICPCG:  Solving for p, Initial residual = 5.75211e-05, Final residual = 2.38844e-06, No Iterations 3
time step continuity errors : sum local = 1.47551e-11, global = -1.90802e-13, cumulative = -1.88943e-09
DICPCG:  Solving for p, Initial residual = 6.63225e-06, Final residual = 9.49586e-07, No Iterations 6
time step continuity errors : sum local = 5.86632e-12, global = 1.21653e-13, cumulative = -1.88931e-09
smoothSolver:  Solving for epsilon, Initial residual = 6.79258e-05, Final residual = 4.12117e-08, No Iterations 1
smoothSolver:  Solving for k, Initial residual = 0.000980632, Final residual = 5.159e-07, No Iterations 1
ExecutionTime = 550.3 s  ClockTime = 565 s

Time = 6

Courant Number mean: 0.0377661 max: 0.293316
smoothSolver:  Solving for Ux, Initial residual = 0.00122933, Final residual = 9.20874e-07, No Iterations 1
smoothSolver:  Solving for Uy, Initial residual = 0.00122951, Final residual = 9.20784e-07, No Iterations 1
smoothSolver:  Solving for Uz, Initial residual = 0.00118189, Final residual = 3.5457e-07, No Iterations 1
DICPCG:  Solving for p, Initial residual = 5.63809e-05, Final residual = 2.4129e-06, No Iterations 3
time step continuity errors : sum local = 1.49068e-11, global = -2.42939e-13, cumulative = -1.88956e-09
DICPCG:  Solving for p, Initial residual = 6.6315e-06, Final residual = 8.86918e-07, No Iterations 447
time step continuity errors : sum local = 5.47935e-12, global = -6.15347e-14, cumulative = -1.88962e-09
smoothSolver:  Solving for epsilon, Initial residual = 6.76663e-05, Final residual = 4.10508e-08, No Iterations 1
smoothSolver:  Solving for k, Initial residual = 0.000975924, Final residual = 5.12193e-07, No Iterations 1
ExecutionTime = 553.08 s  ClockTime = 568 s

Time = 6.025

Courant Number mean: 0.0377658 max: 0.293316
smoothSolver:  Solving for Ux, Initial residual = 0.00122661, Final residual = 9.13753e-07, No Iterations 1
smoothSolver:  Solving for Uy, Initial residual = 0.00122683, Final residual = 9.13669e-07, No Iterations 1
smoothSolver:  Solving for Uz, Initial residual = 0.00117721, Final residual = 3.5305e-07, No Iterations 1
DICPCG:  Solving for p, Initial residual = 5.57466e-05, Final residual = 2.33633e-06, No Iterations 3
time step continuity errors : sum local = 1.44409e-11, global = -2.91347e-13, cumulative = -1.88991e-09
DICPCG:  Solving for p, Initial residual = 6.50581e-06, Final residual = 9.51611e-07, No Iterations 6
time step continuity errors : sum local = 5.88195e-12, global = -1.26076e-14, cumulative = -1.88992e-09
smoothSolver:  Solving for epsilon, Initial residual = 6.73989e-05, Final residual = 4.08803e-08, No Iterations 1
smoothSolver:  Solving for k, Initial residual = 0.000971256, Final residual = 5.09816e-07, No Iterations 1
ExecutionTime = 553.58 s  ClockTime = 569 s

Time = 6.05

Courant Number mean: 0.0377656 max: 0.293316
smoothSolver:  Solving for Ux, Initial residual = 0.00122313, Final residual = 9.06132e-07, No Iterations 1
smoothSolver:  Solving for Uy, Initial residual = 0.00122329, Final residual = 9.0609e-07, No Iterations 1
smoothSolver:  Solving for Uz, Initial residual = 0.00117233, Final residual = 3.51485e-07, No Iterations 1
DICPCG:  Solving for p, Initial residual = 5.50123e-05, Final residual = 2.3629e-06, No Iterations 3
time step continuity errors : sum local = 1.46056e-11, global = -3.50556e-13, cumulative = -1.89027e-09
DICPCG:  Solving for p, Initial residual = 6.52247e-06, Final residual = 8.28099e-07, No Iterations 448
time step continuity errors : sum local = 5.1187e-12, global = 6.31813e-14, cumulative = -1.89021e-09
smoothSolver:  Solving for epsilon, Initial residual = 6.71363e-05, Final residual = 4.07176e-08, No Iterations 1
smoothSolver:  Solving for k, Initial residual = 0.000966624, Final residual = 5.05312e-07, No Iterations 1
ExecutionTime = 556.28 s  ClockTime = 571 s

Time = 6.075

Courant Number mean: 0.0377653 max: 0.293316
smoothSolver:  Solving for Ux, Initial residual = 0.0012221, Final residual = 8.99062e-07, No Iterations 1
smoothSolver:  Solving for Uy, Initial residual = 0.00122229, Final residual = 8.99039e-07, No Iterations 1
smoothSolver:  Solving for Uz, Initial residual = 0.00116784, Final residual = 3.50007e-07, No Iterations 1
DICPCG:  Solving for p, Initial residual = 5.52052e-05, Final residual = 2.25207e-06, No Iterations 3
time step continuity errors : sum local = 1.39304e-11, global = 8.50106e-14, cumulative = -1.89012e-09
DICPCG:  Solving for p, Initial residual = 6.40497e-06, Final residual = 9.56232e-07, No Iterations 5
time step continuity errors : sum local = 5.91491e-12, global = 3.40798e-13, cumulative = -1.88978e-09
smoothSolver:  Solving for epsilon, Initial residual = 6.68772e-05, Final residual = 4.05403e-08, No Iterations 1
smoothSolver:  Solving for k, Initial residual = 0.000962029, Final residual = 5.01018e-07, No Iterations 1
ExecutionTime = 556.8 s  ClockTime = 572 s

Time = 6.1

Courant Number mean: 0.037765 max: 0.293316
smoothSolver:  Solving for Ux, Initial residual = 0.00121889, Final residual = 8.92043e-07, No Iterations 1
smoothSolver:  Solving for Uy, Initial residual = 0.00121914, Final residual = 8.91996e-07, No Iterations 1
smoothSolver:  Solving for Uz, Initial residual = 0.00116303, Final residual = 3.48464e-07, No Iterations 1
DICPCG:  Solving for p, Initial residual = 5.50511e-05, Final residual = 2.4041e-06, No Iterations 3
time step continuity errors : sum local = 1.48713e-11, global = 2.52182e-13, cumulative = -1.88953e-09
