/*---------------------------------------------------------------------------*\
| =========                 |                                                 |
| \\      /  F ield         | OpenFOAM: The Open Source CFD Toolbox           |
|  \\    /   O peration     | Version:  v2012                                 |
|   \\  /    A nd           | Website:  www.openfoam.com                      |
|    \\/     M anipulation  |                                                 |
\*---------------------------------------------------------------------------*/
Build  : _7bdb509494-20201222 OPENFOAM=2012
Arch   : "LSB;label=32;scalar=64"
Exec   : pisoFoam
Date   : Jun 28 2021
Time   : 17:59:48
Host   : DESKTOP-DOBVM7I
PID    : 1906
I/O    : uncollated
Case   : /mnt/c/Users/TSam/GitHub_OpenFOAM/OpenFOAM_snappyHexMesh/pisoFoam_snappy_pipe
nProcs : 1
trapFpe: Floating point exception trapping enabled (FOAM_SIGFPE).
fileModificationChecking : Monitoring run-time modified files using timeStampMaster (fileModificationSkew 5, maxFileModificationPolls 20)
allowSystemOperations : Allowing user-supplied system call operations

// * * * * * * * * * * * * * * * * * * * * * * * * * * * * * * * * * * * * * //
Create time

Create mesh for time = 0


PISO: Operating solver in PISO mode

Reading field p

Reading field U

Reading/calculating face flux field phi

Selecting incompressible transport model Newtonian
Selecting turbulence model type laminar
Selecting laminar stress model Stokes
No MRF models present

No finite volume options present

Starting time loop

Time = 25

Courant Number mean: 0.0377384 max: 0.306184
smoothSolver:  Solving for Ux, Initial residual = 1, Final residual = 1.47706e-06, No Iterations 5
smoothSolver:  Solving for Uy, Initial residual = 1, Final residual = 1.4771e-06, No Iterations 5
smoothSolver:  Solving for Uz, Initial residual = 1, Final residual = 6.71078e-06, No Iterations 3
DICPCG:  Solving for p, Initial residual = 1, Final residual = 0.0452469, No Iterations 445
time step continuity errors : sum local = 1.87506e-07, global = -3.60399e-09, cumulative = -3.60399e-09
DICPCG:  Solving for p, Initial residual = 0.000979367, Final residual = 9.65601e-07, No Iterations 456
time step continuity errors : sum local = 1.39589e-09, global = 2.44357e-11, cumulative = -3.57955e-09
ExecutionTime = 8.35 s  ClockTime = 12 s

Time = 50

Courant Number mean: 0.0377697 max: 0.271749
smoothSolver:  Solving for Ux, Initial residual = 0.319621, Final residual = 9.54651e-07, No Iterations 4
smoothSolver:  Solving for Uy, Initial residual = 0.31962, Final residual = 9.54635e-07, No Iterations 4
smoothSolver:  Solving for Uz, Initial residual = 0.204342, Final residual = 3.76132e-06, No Iterations 2
DICPCG:  Solving for p, Initial residual = 0.00605608, Final residual = 0.000281421, No Iterations 437
time step continuity errors : sum local = 3.94446e-07, global = 8.41092e-09, cumulative = 4.83137e-09
DICPCG:  Solving for p, Initial residual = 0.000721823, Final residual = 8.03369e-07, No Iterations 452
time step continuity errors : sum local = 7.66307e-10, global = 4.56285e-12, cumulative = 4.83593e-09
ExecutionTime = 15.3 s  ClockTime = 20 s

Time = 75

Courant Number mean: 0.0377183 max: 0.278923
smoothSolver:  Solving for Ux, Initial residual = 0.152212, Final residual = 5.25682e-06, No Iterations 3
smoothSolver:  Solving for Uy, Initial residual = 0.152204, Final residual = 5.25687e-06, No Iterations 3
smoothSolver:  Solving for Uz, Initial residual = 0.099645, Final residual = 1.95605e-06, No Iterations 2
DICPCG:  Solving for p, Initial residual = 0.00302291, Final residual = 0.000149109, No Iterations 434
time step continuity errors : sum local = 1.44856e-07, global = 3.22249e-09, cumulative = 8.05842e-09
DICPCG:  Solving for p, Initial residual = 0.000299015, Final residual = 9.47278e-07, No Iterations 449
time step continuity errors : sum local = 8.58766e-10, global = 2.43756e-12, cumulative = 8.06086e-09
ExecutionTime = 21.83 s  ClockTime = 26 s

Time = 100

Courant Number mean: 0.0376689 max: 0.282751
smoothSolver:  Solving for Ux, Initial residual = 0.103229, Final residual = 2.96333e-06, No Iterations 3
smoothSolver:  Solving for Uy, Initial residual = 0.103232, Final residual = 2.96335e-06, No Iterations 3
smoothSolver:  Solving for Uz, Initial residual = 0.0675929, Final residual = 1.2565e-06, No Iterations 2
DICPCG:  Solving for p, Initial residual = 0.00202357, Final residual = 8.72785e-05, No Iterations 436
time step continuity errors : sum local = 7.94922e-08, global = 1.69472e-09, cumulative = 9.75558e-09
DICPCG:  Solving for p, Initial residual = 0.000177508, Final residual = 9.63681e-07, No Iterations 446
time step continuity errors : sum local = 8.23323e-10, global = -6.6789e-12, cumulative = 9.7489e-09
ExecutionTime = 28.07 s  ClockTime = 33 s

Time = 125

Courant Number mean: 0.0376224 max: 0.284881
smoothSolver:  Solving for Ux, Initial residual = 0.075752, Final residual = 1.88471e-06, No Iterations 3
smoothSolver:  Solving for Uy, Initial residual = 0.075754, Final residual = 1.88471e-06, No Iterations 3
smoothSolver:  Solving for Uz, Initial residual = 0.0506926, Final residual = 8.99518e-07, No Iterations 2
DICPCG:  Solving for p, Initial residual = 0.000886938, Final residual = 3.5919e-05, No Iterations 439
time step continuity errors : sum local = 3.07887e-08, global = 6.00254e-10, cumulative = 1.03492e-08
DICPCG:  Solving for p, Initial residual = 9.93241e-05, Final residual = 9.73779e-07, No Iterations 447
time step continuity errors : sum local = 7.85896e-10, global = -5.32269e-12, cumulative = 1.03438e-08
ExecutionTime = 33.94 s  ClockTime = 38 s

Time = 150

Courant Number mean: 0.0375781 max: 0.286086
smoothSolver:  Solving for Ux, Initial residual = 0.0587263, Final residual = 1.28502e-06, No Iterations 3
smoothSolver:  Solving for Uy, Initial residual = 0.0587273, Final residual = 1.28502e-06, No Iterations 3
smoothSolver:  Solving for Uz, Initial residual = 0.0402864, Final residual = 6.83306e-07, No Iterations 2
DICPCG:  Solving for p, Initial residual = 0.000522141, Final residual = 2.22262e-05, No Iterations 440
time step continuity errors : sum local = 1.79865e-08, global = 3.50892e-10, cumulative = 1.06947e-08
DICPCG:  Solving for p, Initial residual = 7.13915e-05, Final residual = 9.56206e-07, No Iterations 446
time step continuity errors : sum local = 7.31582e-10, global = -1.13604e-11, cumulative = 1.06834e-08
ExecutionTime = 40.08 s  ClockTime = 45 s

Time = 175

Courant Number mean: 0.037536 max: 0.2868
smoothSolver:  Solving for Ux, Initial residual = 0.0471621, Final residual = 9.18788e-07, No Iterations 3
smoothSolver:  Solving for Uy, Initial residual = 0.0471628, Final residual = 9.18788e-07, No Iterations 3
smoothSolver:  Solving for Uz, Initial residual = 0.0334188, Final residual = 5.39652e-07, No Iterations 2
DICPCG:  Solving for p, Initial residual = 0.00052996, Final residual = 2.39874e-05, No Iterations 439
time step continuity errors : sum local = 1.83941e-08, global = 3.74054e-10, cumulative = 1.10574e-08
DICPCG:  Solving for p, Initial residual = 6.29835e-05, Final residual = 9.52085e-07, No Iterations 445
time step continuity errors : sum local = 6.93018e-10, global = -8.65814e-12, cumulative = 1.10488e-08
ExecutionTime = 46.53 s  ClockTime = 51 s

Time = 200

Courant Number mean: 0.0374958 max: 0.287239
smoothSolver:  Solving for Ux, Initial residual = 0.0388191, Final residual = 8.0053e-06, No Iterations 2
smoothSolver:  Solving for Uy, Initial residual = 0.0388189, Final residual = 8.00531e-06, No Iterations 2
smoothSolver:  Solving for Uz, Initial residual = 0.0284441, Final residual = 4.38717e-07, No Iterations 2
DICPCG:  Solving for p, Initial residual = 0.000564912, Final residual = 2.64814e-05, No Iterations 438
time step continuity errors : sum local = 1.93135e-08, global = 4.04121e-10, cumulative = 1.14529e-08
DICPCG:  Solving for p, Initial residual = 5.74455e-05, Final residual = 9.43912e-07, No Iterations 444
time step continuity errors : sum local = 6.55989e-10, global = -8.5917e-12, cumulative = 1.14443e-08
ExecutionTime = 52.62 s  ClockTime = 57 s

Time = 225

Courant Number mean: 0.0374572 max: 0.287518
smoothSolver:  Solving for Ux, Initial residual = 0.0325432, Final residual = 6.26965e-06, No Iterations 2
smoothSolver:  Solving for Uy, Initial residual = 0.032543, Final residual = 6.26967e-06, No Iterations 2
smoothSolver:  Solving for Uz, Initial residual = 0.024681, Final residual = 3.64609e-07, No Iterations 2
DICPCG:  Solving for p, Initial residual = 0.00058568, Final residual = 2.85648e-05, No Iterations 437
time step continuity errors : sum local = 1.9886e-08, global = 4.21894e-10, cumulative = 1.18662e-08
DICPCG:  Solving for p, Initial residual = 5.48731e-05, Final residual = 9.67857e-07, No Iterations 443
time step continuity errors : sum local = 6.44378e-10, global = -6.4702e-12, cumulative = 1.18597e-08
ExecutionTime = 58.58 s  ClockTime = 63 s

Time = 250

Courant Number mean: 0.0374201 max: 0.2877
smoothSolver:  Solving for Ux, Initial residual = 0.0276678, Final residual = 5.07104e-06, No Iterations 2
smoothSolver:  Solving for Uy, Initial residual = 0.0276678, Final residual = 5.07109e-06, No Iterations 2
smoothSolver:  Solving for Uz, Initial residual = 0.0217417, Final residual = 3.08301e-07, No Iterations 2
DICPCG:  Solving for p, Initial residual = 0.0005847, Final residual = 2.53677e-05, No Iterations 437
time step continuity errors : sum local = 1.69152e-08, global = 3.55989e-10, cumulative = 1.22157e-08
DICPCG:  Solving for p, Initial residual = 4.82434e-05, Final residual = 7.82733e-07, No Iterations 443
time step continuity errors : sum local = 5.00817e-10, global = -7.05261e-12, cumulative = 1.22087e-08
ExecutionTime = 64.73 s  ClockTime = 70 s

Time = 275

Courant Number mean: 0.0373843 max: 0.287821
smoothSolver:  Solving for Ux, Initial residual = 0.0237918, Final residual = 4.19684e-06, No Iterations 2
smoothSolver:  Solving for Uy, Initial residual = 0.0237919, Final residual = 4.19686e-06, No Iterations 2
smoothSolver:  Solving for Uz, Initial residual = 0.0193871, Final residual = 2.64389e-07, No Iterations 2
DICPCG:  Solving for p, Initial residual = 0.000574145, Final residual = 2.86479e-05, No Iterations 436
time step continuity errors : sum local = 1.83552e-08, global = 3.94325e-10, cumulative = 1.2603e-08
DICPCG:  Solving for p, Initial residual = 4.84329e-05, Final residual = 9.0779e-07, No Iterations 442
time step continuity errors : sum local = 5.59826e-10, global = -1.09128e-11, cumulative = 1.25921e-08
ExecutionTime = 73 s  ClockTime = 79 s

Time = 300

Courant Number mean: 0.0373496 max: 0.287903
smoothSolver:  Solving for Ux, Initial residual = 0.020649, Final residual = 3.54082e-06, No Iterations 2
smoothSolver:  Solving for Uy, Initial residual = 0.0206492, Final residual = 3.54086e-06, No Iterations 2
smoothSolver:  Solving for Uz, Initial residual = 0.017462, Final residual = 2.29457e-07, No Iterations 2
DICPCG:  Solving for p, Initial residual = 0.000559293, Final residual = 2.42235e-05, No Iterations 436
time step continuity errors : sum local = 1.49571e-08, global = 3.33191e-10, cumulative = 1.29253e-08
DICPCG:  Solving for p, Initial residual = 4.22153e-05, Final residual = 8.78413e-07, No Iterations 442
time step continuity errors : sum local = 5.23523e-10, global = -9.31703e-12, cumulative = 1.29159e-08
ExecutionTime = 79.68 s  ClockTime = 86 s

Time = 325

Courant Number mean: 0.0373161 max: 0.28796
smoothSolver:  Solving for Ux, Initial residual = 0.0180584, Final residual = 3.03429e-06, No Iterations 2
smoothSolver:  Solving for Uy, Initial residual = 0.0180585, Final residual = 3.03435e-06, No Iterations 2
smoothSolver:  Solving for Uz, Initial residual = 0.0159003, Final residual = 2.01181e-07, No Iterations 2
DICPCG:  Solving for p, Initial residual = 0.000538378, Final residual = 2.26048e-05, No Iterations 436
time step continuity errors : sum local = 1.34876e-08, global = 2.90308e-10, cumulative = 1.32062e-08
DICPCG:  Solving for p, Initial residual = 3.86299e-05, Final residual = 7.38677e-07, No Iterations 442
time step continuity errors : sum local = 4.26504e-10, global = -6.76866e-12, cumulative = 1.31995e-08
ExecutionTime = 85.84 s  ClockTime = 92 s

Time = 350

Courant Number mean: 0.0372834 max: 0.287999
smoothSolver:  Solving for Ux, Initial residual = 0.0158979, Final residual = 2.63333e-06, No Iterations 2
smoothSolver:  Solving for Uy, Initial residual = 0.0158977, Final residual = 2.63337e-06, No Iterations 2
smoothSolver:  Solving for Uz, Initial residual = 0.0145964, Final residual = 1.77902e-07, No Iterations 2
DICPCG:  Solving for p, Initial residual = 0.000519757, Final residual = 2.11683e-05, No Iterations 436
time step continuity errors : sum local = 1.22352e-08, global = 2.60244e-10, cumulative = 1.34597e-08
DICPCG:  Solving for p, Initial residual = 3.57913e-05, Final residual = 8.95316e-07, No Iterations 441
time step continuity errors : sum local = 5.01934e-10, global = -6.7318e-12, cumulative = 1.3453e-08
ExecutionTime = 91.79 s  ClockTime = 98 s

Time = 375

Courant Number mean: 0.0372516 max: 0.288027
smoothSolver:  Solving for Ux, Initial residual = 0.0140765, Final residual = 2.30865e-06, No Iterations 2
smoothSolver:  Solving for Uy, Initial residual = 0.0140762, Final residual = 2.30869e-06, No Iterations 2
smoothSolver:  Solving for Uz, Initial residual = 0.0134818, Final residual = 9.63634e-06, No Iterations 1
DICPCG:  Solving for p, Initial residual = 0.000502613, Final residual = 1.98455e-05, No Iterations 434
time step continuity errors : sum local = 1.11366e-08, global = 2.17746e-10, cumulative = 1.36707e-08
DICPCG:  Solving for p, Initial residual = 4.50192e-05, Final residual = 9.92933e-07, No Iterations 424
time step continuity errors : sum local = 5.41505e-10, global = -1.29391e-11, cumulative = 1.36578e-08
ExecutionTime = 97.49 s  ClockTime = 103 s

Time = 400

Courant Number mean: 0.0372206 max: 0.288046
smoothSolver:  Solving for Ux, Initial residual = 0.0125217, Final residual = 2.04598e-06, No Iterations 2
smoothSolver:  Solving for Uy, Initial residual = 0.0125216, Final residual = 2.046e-06, No Iterations 2
smoothSolver:  Solving for Uz, Initial residual = 0.0125185, Final residual = 8.85491e-06, No Iterations 1
DICPCG:  Solving for p, Initial residual = 0.000479953, Final residual = 2.38665e-05, No Iterations 433
time step continuity errors : sum local = 1.30289e-08, global = 2.4055e-10, cumulative = 1.38983e-08
DICPCG:  Solving for p, Initial residual = 4.61433e-05, Final residual = 7.93185e-07, No Iterations 444
time step continuity errors : sum local = 4.21631e-10, global = 5.135e-12, cumulative = 1.39035e-08
ExecutionTime = 103.29 s  ClockTime = 109 s

Time = 425

Courant Number mean: 0.0371903 max: 0.288631
smoothSolver:  Solving for Ux, Initial residual = 0.0111845, Final residual = 1.82355e-06, No Iterations 2
smoothSolver:  Solving for Uy, Initial residual = 0.0111843, Final residual = 1.8236e-06, No Iterations 2
smoothSolver:  Solving for Uz, Initial residual = 0.0116985, Final residual = 8.18309e-06, No Iterations 1
DICPCG:  Solving for p, Initial residual = 0.000458314, Final residual = 2.1535e-05, No Iterations 433
time step continuity errors : sum local = 1.14579e-08, global = 2.24317e-10, cumulative = 1.41278e-08
DICPCG:  Solving for p, Initial residual = 4.23843e-05, Final residual = 9.25109e-07, No Iterations 422
time step continuity errors : sum local = 4.80096e-10, global = -1.11455e-11, cumulative = 1.41167e-08
ExecutionTime = 108.91 s  ClockTime = 115 s

Time = 450

Courant Number mean: 0.0371606 max: 0.289436
smoothSolver:  Solving for Ux, Initial residual = 0.0100244, Final residual = 1.63478e-06, No Iterations 2
smoothSolver:  Solving for Uy, Initial residual = 0.0100243, Final residual = 1.63482e-06, No Iterations 2
smoothSolver:  Solving for Uz, Initial residual = 0.011013, Final residual = 7.60715e-06, No Iterations 1
DICPCG:  Solving for p, Initial residual = 0.000437372, Final residual = 1.73734e-05, No Iterations 434
time step continuity errors : sum local = 9.02401e-09, global = 1.72413e-10, cumulative = 1.42891e-08
DICPCG:  Solving for p, Initial residual = 3.75e-05, Final residual = 9.77074e-07, No Iterations 422
time step continuity errors : sum local = 4.9578e-10, global = -1.06797e-11, cumulative = 1.42784e-08
ExecutionTime = 114.43 s  ClockTime = 120 s

Time = 475

Courant Number mean: 0.0371315 max: 0.290117
smoothSolver:  Solving for Ux, Initial residual = 0.00901668, Final residual = 1.47404e-06, No Iterations 2
smoothSolver:  Solving for Uy, Initial residual = 0.00901659, Final residual = 1.47405e-06, No Iterations 2
smoothSolver:  Solving for Uz, Initial residual = 0.0104045, Final residual = 7.10562e-06, No Iterations 1
DICPCG:  Solving for p, Initial residual = 0.00041773, Final residual = 2.04453e-05, No Iterations 433
time step continuity errors : sum local = 1.03827e-08, global = 1.94613e-10, cumulative = 1.4473e-08
DICPCG:  Solving for p, Initial residual = 3.88635e-05, Final residual = 9.71797e-07, No Iterations 421
time step continuity errors : sum local = 4.82766e-10, global = -7.53277e-12, cumulative = 1.44655e-08
ExecutionTime = 120.11 s  ClockTime = 126 s

Time = 500

Courant Number mean: 0.037103 max: 0.290693
smoothSolver:  Solving for Ux, Initial residual = 0.008139, Final residual = 1.33468e-06, No Iterations 2
smoothSolver:  Solving for Uy, Initial residual = 0.00813897, Final residual = 1.3347e-06, No Iterations 2
smoothSolver:  Solving for Uz, Initial residual = 0.009858, Final residual = 6.66447e-06, No Iterations 1
DICPCG:  Solving for p, Initial residual = 0.000397791, Final residual = 1.94497e-05, No Iterations 433
time step continuity errors : sum local = 9.66966e-09, global = 1.81307e-10, cumulative = 1.46468e-08
DICPCG:  Solving for p, Initial residual = 3.69231e-05, Final residual = 8.99192e-07, No Iterations 422
time step continuity errors : sum local = 4.37867e-10, global = -1.50577e-13, cumulative = 1.46466e-08
ExecutionTime = 125.59 s  ClockTime = 132 s

Time = 525

Courant Number mean: 0.0370749 max: 0.291182
smoothSolver:  Solving for Ux, Initial residual = 0.00736865, Final residual = 1.21422e-06, No Iterations 2
smoothSolver:  Solving for Uy, Initial residual = 0.0073686, Final residual = 1.21424e-06, No Iterations 2
smoothSolver:  Solving for Uz, Initial residual = 0.0093761, Final residual = 6.27348e-06, No Iterations 1
DICPCG:  Solving for p, Initial residual = 0.000379253, Final residual = 1.83321e-05, No Iterations 433
time step continuity errors : sum local = 8.9334e-09, global = 1.69049e-10, cumulative = 1.48157e-08
DICPCG:  Solving for p, Initial residual = 3.49059e-05, Final residual = 9.37736e-07, No Iterations 424
time step continuity errors : sum local = 4.48087e-10, global = 5.89749e-12, cumulative = 1.48216e-08
ExecutionTime = 131.36 s  ClockTime = 137 s

Time = 550

Courant Number mean: 0.0370474 max: 0.291598
smoothSolver:  Solving for Ux, Initial residual = 0.00668429, Final residual = 1.10818e-06, No Iterations 2
smoothSolver:  Solving for Uy, Initial residual = 0.00668435, Final residual = 1.10821e-06, No Iterations 2
smoothSolver:  Solving for Uz, Initial residual = 0.008945, Final residual = 5.92765e-06, No Iterations 1
DICPCG:  Solving for p, Initial residual = 0.000361931, Final residual = 1.80877e-05, No Iterations 433
time step continuity errors : sum local = 8.64899e-09, global = 1.75847e-10, cumulative = 1.49974e-08
DICPCG:  Solving for p, Initial residual = 3.37766e-05, Final residual = 9.58263e-07, No Iterations 425
time step continuity errors : sum local = 4.4977e-10, global = 7.2495e-12, cumulative = 1.50047e-08
ExecutionTime = 137.15 s  ClockTime = 143 s

Time = 575

Courant Number mean: 0.0370203 max: 0.291952
smoothSolver:  Solving for Ux, Initial residual = 0.0060765, Final residual = 1.01551e-06, No Iterations 2
smoothSolver:  Solving for Uy, Initial residual = 0.00607641, Final residual = 1.01552e-06, No Iterations 2
smoothSolver:  Solving for Uz, Initial residual = 0.00855262, Final residual = 5.61943e-06, No Iterations 1
DICPCG:  Solving for p, Initial residual = 0.000345923, Final residual = 1.64531e-05, No Iterations 433
time step continuity errors : sum local = 7.72744e-09, global = 1.44022e-10, cumulative = 1.51487e-08
DICPCG:  Solving for p, Initial residual = 3.14613e-05, Final residual = 8.9198e-07, No Iterations 444
time step continuity errors : sum local = 4.11586e-10, global = 5.167e-12, cumulative = 1.51539e-08
ExecutionTime = 142.88 s  ClockTime = 149 s

Time = 600

Courant Number mean: 0.0369936 max: 0.292255
smoothSolver:  Solving for Ux, Initial residual = 0.00553057, Final residual = 9.33499e-07, No Iterations 2
smoothSolver:  Solving for Uy, Initial residual = 0.00553057, Final residual = 9.33506e-07, No Iterations 2
smoothSolver:  Solving for Uz, Initial residual = 0.00819362, Final residual = 5.34242e-06, No Iterations 1
DICPCG:  Solving for p, Initial residual = 0.000330803, Final residual = 1.41006e-05, No Iterations 433
time step continuity errors : sum local = 6.5105e-09, global = 1.19266e-10, cumulative = 1.52731e-08
DICPCG:  Solving for p, Initial residual = 2.86938e-05, Final residual = 9.9569e-07, No Iterations 424
time step continuity errors : sum local = 4.52043e-10, global = 4.10673e-12, cumulative = 1.52772e-08
ExecutionTime = 148.33 s  ClockTime = 154 s

Time = 625

Courant Number mean: 0.0369672 max: 0.292514
smoothSolver:  Solving for Ux, Initial residual = 0.00504149, Final residual = 8.60389e-07, No Iterations 2
smoothSolver:  Solving for Uy, Initial residual = 0.00504134, Final residual = 8.6038e-07, No Iterations 2
smoothSolver:  Solving for Uz, Initial residual = 0.00786363, Final residual = 5.09151e-06, No Iterations 1
DICPCG:  Solving for p, Initial residual = 0.000316375, Final residual = 1.47347e-05, No Iterations 433
time step continuity errors : sum local = 6.69349e-09, global = 1.28234e-10, cumulative = 1.54055e-08
DICPCG:  Solving for p, Initial residual = 2.84545e-05, Final residual = 8.91106e-07, No Iterations 444
time step continuity errors : sum local = 3.98337e-10, global = 4.50715e-12, cumulative = 1.541e-08
ExecutionTime = 154.05 s  ClockTime = 160 s

Time = 650

Courant Number mean: 0.0369413 max: 0.292735
smoothSolver:  Solving for Ux, Initial residual = 0.00463406, Final residual = 7.9492e-07, No Iterations 2
smoothSolver:  Solving for Uy, Initial residual = 0.004634, Final residual = 7.94932e-07, No Iterations 2
smoothSolver:  Solving for Uz, Initial residual = 0.00755903, Final residual = 4.86333e-06, No Iterations 1
DICPCG:  Solving for p, Initial residual = 0.000303712, Final residual = 1.50798e-05, No Iterations 432
time step continuity errors : sum local = 6.74475e-09, global = 1.3335e-10, cumulative = 1.55433e-08
DICPCG:  Solving for p, Initial residual = 2.82512e-05, Final residual = 9.38267e-07, No Iterations 424
time step continuity errors : sum local = 4.13237e-10, global = 2.08353e-12, cumulative = 1.55454e-08
ExecutionTime = 159.59 s  ClockTime = 166 s

Time = 675

Courant Number mean: 0.0369157 max: 0.292925
smoothSolver:  Solving for Ux, Initial residual = 0.00435184, Final residual = 7.36398e-07, No Iterations 2
smoothSolver:  Solving for Uy, Initial residual = 0.0043518, Final residual = 7.36396e-07, No Iterations 2
smoothSolver:  Solving for Uz, Initial residual = 0.00727671, Final residual = 4.656e-06, No Iterations 1
DICPCG:  Solving for p, Initial residual = 0.000290786, Final residual = 1.30996e-05, No Iterations 433
time step continuity errors : sum local = 5.77253e-09, global = 1.05479e-10, cumulative = 1.56509e-08
DICPCG:  Solving for p, Initial residual = 2.57984e-05, Final residual = 8.52895e-07, No Iterations 444
time step continuity errors : sum local = 3.70325e-10, global = 3.72973e-12, cumulative = 1.56546e-08
ExecutionTime = 165.37 s  ClockTime = 172 s

Time = 700

Courant Number mean: 0.0368904 max: 0.293088
smoothSolver:  Solving for Ux, Initial residual = 0.00413588, Final residual = 6.83104e-07, No Iterations 2
smoothSolver:  Solving for Uy, Initial residual = 0.00413586, Final residual = 6.83111e-07, No Iterations 2
smoothSolver:  Solving for Uz, Initial residual = 0.00701418, Final residual = 4.46553e-06, No Iterations 1
DICPCG:  Solving for p, Initial residual = 0.000280202, Final residual = 1.33853e-05, No Iterations 432
time step continuity errors : sum local = 5.81494e-09, global = 1.09677e-10, cumulative = 1.57643e-08
DICPCG:  Solving for p, Initial residual = 2.56332e-05, Final residual = 9.24207e-07, No Iterations 423
time step continuity errors : sum local = 3.95829e-10, global = 4.30671e-14, cumulative = 1.57643e-08
ExecutionTime = 170.82 s  ClockTime = 177 s

Time = 725

Courant Number mean: 0.0368655 max: 0.293228
smoothSolver:  Solving for Ux, Initial residual = 0.00396097, Final residual = 6.35502e-07, No Iterations 2
smoothSolver:  Solving for Uy, Initial residual = 0.00396092, Final residual = 6.35507e-07, No Iterations 2
smoothSolver:  Solving for Uz, Initial residual = 0.00676919, Final residual = 4.28941e-06, No Iterations 1
DICPCG:  Solving for p, Initial residual = 0.000269759, Final residual = 1.20347e-05, No Iterations 433
time step continuity errors : sum local = 5.1569e-09, global = 7.3621e-11, cumulative = 1.5838e-08
DICPCG:  Solving for p, Initial residual = 2.38848e-05, Final residual = 8.81144e-07, No Iterations 444
time step continuity errors : sum local = 3.7244e-10, global = 2.83912e-12, cumulative = 1.58408e-08
ExecutionTime = 176.56 s  ClockTime = 183 s

Time = 750

Courant Number mean: 0.0368408 max: 0.293348
smoothSolver:  Solving for Ux, Initial residual = 0.0039265, Final residual = 5.9261e-07, No Iterations 2
smoothSolver:  Solving for Uy, Initial residual = 0.0039263, Final residual = 5.92604e-07, No Iterations 2
smoothSolver:  Solving for Uz, Initial residual = 0.00653993, Final residual = 4.12608e-06, No Iterations 1
DICPCG:  Solving for p, Initial residual = 0.00026017, Final residual = 1.22941e-05, No Iterations 432
time step continuity errors : sum local = 5.199e-09, global = 7.91694e-11, cumulative = 1.592e-08
DICPCG:  Solving for p, Initial residual = 2.36694e-05, Final residual = 9.8415e-07, No Iterations 420
time step continuity errors : sum local = 4.10711e-10, global = -5.6449e-12, cumulative = 1.59143e-08
ExecutionTime = 182.15 s  ClockTime = 188 s

Time = 775

Courant Number mean: 0.0368165 max: 0.293452
smoothSolver:  Solving for Ux, Initial residual = 0.00392699, Final residual = 5.53451e-07, No Iterations 2
smoothSolver:  Solving for Uy, Initial residual = 0.00392693, Final residual = 5.5345e-07, No Iterations 2
smoothSolver:  Solving for Uz, Initial residual = 0.00632216, Final residual = 3.97281e-06, No Iterations 1
DICPCG:  Solving for p, Initial residual = 0.00025016, Final residual = 9.99816e-06, No Iterations 433
time step continuity errors : sum local = 4.17444e-09, global = 4.6129e-11, cumulative = 1.59604e-08
DICPCG:  Solving for p, Initial residual = 2.12556e-05, Final residual = 9.93445e-07, No Iterations 423
time step continuity errors : sum local = 4.09522e-10, global = -5.71548e-12, cumulative = 1.59547e-08
ExecutionTime = 187.77 s  ClockTime = 194 s

Time = 800

Courant Number mean: 0.0367924 max: 0.293541
smoothSolver:  Solving for Ux, Initial residual = 0.00391867, Final residual = 5.17784e-07, No Iterations 2
smoothSolver:  Solving for Uy, Initial residual = 0.00391854, Final residual = 5.17771e-07, No Iterations 2
smoothSolver:  Solving for Uz, Initial residual = 0.00611535, Final residual = 3.8294e-06, No Iterations 1
DICPCG:  Solving for p, Initial residual = 0.000242369, Final residual = 1.12906e-05, No Iterations 432
time step continuity errors : sum local = 4.65634e-09, global = 7.25069e-11, cumulative = 1.60272e-08
DICPCG:  Solving for p, Initial residual = 2.19892e-05, Final residual = 9.67597e-07, No Iterations 421
time step continuity errors : sum local = 3.94144e-10, global = -5.9649e-12, cumulative = 1.60213e-08
ExecutionTime = 194.01 s  ClockTime = 200 s

Time = 825

Courant Number mean: 0.0367686 max: 0.293618
smoothSolver:  Solving for Ux, Initial residual = 0.00390539, Final residual = 4.8557e-07, No Iterations 2
smoothSolver:  Solving for Uy, Initial residual = 0.0039053, Final residual = 4.85572e-07, No Iterations 2
smoothSolver:  Solving for Uz, Initial residual = 0.00591837, Final residual = 3.69421e-06, No Iterations 1
DICPCG:  Solving for p, Initial residual = 0.000235086, Final residual = 1.12035e-05, No Iterations 432
time step continuity errors : sum local = 4.56566e-09, global = 7.25497e-11, cumulative = 1.60938e-08
DICPCG:  Solving for p, Initial residual = 2.16e-05, Final residual = 9.97533e-07, No Iterations 420
time step continuity errors : sum local = 4.01673e-10, global = -6.04371e-12, cumulative = 1.60878e-08
ExecutionTime = 199.71 s  ClockTime = 206 s

Time = 850

Courant Number mean: 0.0367451 max: 0.293684
smoothSolver:  Solving for Ux, Initial residual = 0.00388507, Final residual = 4.5605e-07, No Iterations 2
smoothSolver:  Solving for Uy, Initial residual = 0.00388495, Final residual = 4.5605e-07, No Iterations 2
smoothSolver:  Solving for Uz, Initial residual = 0.00573242, Final residual = 3.56765e-06, No Iterations 1
DICPCG:  Solving for p, Initial residual = 0.000230321, Final residual = 9.8904e-06, No Iterations 432
time step continuity errors : sum local = 3.9842e-09, global = 6.00648e-11, cumulative = 1.61478e-08
DICPCG:  Solving for p, Initial residual = 2.01014e-05, Final residual = 9.86365e-07, No Iterations 419
time step continuity errors : sum local = 3.92748e-10, global = -7.47078e-12, cumulative = 1.61404e-08
ExecutionTime = 205.41 s  ClockTime = 212 s

Time = 875

Courant Number mean: 0.0367218 max: 0.293741
smoothSolver:  Solving for Ux, Initial residual = 0.00386466, Final residual = 4.29175e-07, No Iterations 2
smoothSolver:  Solving for Uy, Initial residual = 0.00386454, Final residual = 4.29171e-07, No Iterations 2
smoothSolver:  Solving for Uz, Initial residual = 0.00555656, Final residual = 3.44916e-06, No Iterations 1
DICPCG:  Solving for p, Initial residual = 0.000222119, Final residual = 9.50568e-06, No Iterations 432
time step continuity errors : sum local = 3.78649e-09, global = 4.04879e-11, cumulative = 1.61809e-08
DICPCG:  Solving for p, Initial residual = 1.94803e-05, Final residual = 9.66519e-07, No Iterations 418
time step continuity errors : sum local = 3.80677e-10, global = -8.06644e-12, cumulative = 1.61728e-08
ExecutionTime = 212.06 s  ClockTime = 219 s

Time = 900

Courant Number mean: 0.0366987 max: 0.293791
smoothSolver:  Solving for Ux, Initial residual = 0.00383565, Final residual = 4.04034e-07, No Iterations 2
smoothSolver:  Solving for Uy, Initial residual = 0.00383553, Final residual = 4.0402e-07, No Iterations 2
smoothSolver:  Solving for Uz, Initial residual = 0.00538993, Final residual = 3.33802e-06, No Iterations 1
DICPCG:  Solving for p, Initial residual = 0.000215139, Final residual = 9.30749e-06, No Iterations 432
time step continuity errors : sum local = 3.66734e-09, global = 4.07147e-11, cumulative = 1.62135e-08
DICPCG:  Solving for p, Initial residual = 1.89598e-05, Final residual = 9.7381e-07, No Iterations 418
time step continuity errors : sum local = 3.79506e-10, global = -7.67961e-12, cumulative = 1.62058e-08
ExecutionTime = 217.62 s  ClockTime = 224 s

Time = 925

Courant Number mean: 0.0366759 max: 0.293833
smoothSolver:  Solving for Ux, Initial residual = 0.00380539, Final residual = 9.75743e-06, No Iterations 1
smoothSolver:  Solving for Uy, Initial residual = 0.00380529, Final residual = 9.75715e-06, No Iterations 1
smoothSolver:  Solving for Uz, Initial residual = 0.00523178, Final residual = 3.23345e-06, No Iterations 1
DICPCG:  Solving for p, Initial residual = 0.000207842, Final residual = 8.44022e-06, No Iterations 432
time step continuity errors : sum local = 3.29053e-09, global = 3.89063e-11, cumulative = 1.62447e-08
DICPCG:  Solving for p, Initial residual = 1.83236e-05, Final residual = 9.70089e-07, No Iterations 417
time step continuity errors : sum local = 3.74176e-10, global = -8.74324e-12, cumulative = 1.6236e-08
ExecutionTime = 224.37 s  ClockTime = 231 s

Time = 950

Courant Number mean: 0.0366533 max: 0.293871
smoothSolver:  Solving for Ux, Initial residual = 0.00377103, Final residual = 9.3699e-06, No Iterations 1
smoothSolver:  Solving for Uy, Initial residual = 0.00377091, Final residual = 9.36954e-06, No Iterations 1
smoothSolver:  Solving for Uz, Initial residual = 0.00508458, Final residual = 3.13501e-06, No Iterations 1
DICPCG:  Solving for p, Initial residual = 0.000203049, Final residual = 9.36938e-06, No Iterations 431
time step continuity errors : sum local = 3.61526e-09, global = 2.90039e-11, cumulative = 1.6265e-08
DICPCG:  Solving for p, Initial residual = 1.88124e-05, Final residual = 9.45074e-07, No Iterations 416
time step continuity errors : sum local = 3.60882e-10, global = -9.34632e-12, cumulative = 1.62556e-08
ExecutionTime = 230.34 s  ClockTime = 237 s

Time = 975

Courant Number mean: 0.0366309 max: 0.293903
smoothSolver:  Solving for Ux, Initial residual = 0.00373533, Final residual = 9.00353e-06, No Iterations 1
smoothSolver:  Solving for Uy, Initial residual = 0.00373518, Final residual = 9.00311e-06, No Iterations 1
smoothSolver:  Solving for Uz, Initial residual = 0.00494761, Final residual = 3.0424e-06, No Iterations 1
DICPCG:  Solving for p, Initial residual = 0.000199318, Final residual = 8.94966e-06, No Iterations 431
time step continuity errors : sum local = 3.41874e-09, global = 1.96213e-11, cumulative = 1.62753e-08
DICPCG:  Solving for p, Initial residual = 1.82303e-05, Final residual = 9.8288e-07, No Iterations 414
time step continuity errors : sum local = 3.71657e-10, global = -9.51523e-12, cumulative = 1.62658e-08
ExecutionTime = 235.99 s  ClockTime = 243 s

Time = 1000

Courant Number mean: 0.0366087 max: 0.29393
smoothSolver:  Solving for Ux, Initial residual = 0.00369947, Final residual = 8.65584e-06, No Iterations 1
smoothSolver:  Solving for Uy, Initial residual = 0.00369931, Final residual = 8.65549e-06, No Iterations 1
smoothSolver:  Solving for Uz, Initial residual = 0.00481699, Final residual = 2.95465e-06, No Iterations 1
DICPCG:  Solving for p, Initial residual = 0.00019575, Final residual = 9.02338e-06, No Iterations 431
time step continuity errors : sum local = 3.41324e-09, global = 2.2742e-11, cumulative = 1.62885e-08
DICPCG:  Solving for p, Initial residual = 1.80718e-05, Final residual = 9.7457e-07, No Iterations 416
time step continuity errors : sum local = 3.65006e-10, global = -8.05411e-12, cumulative = 1.62804e-08
ExecutionTime = 241.54 s  ClockTime = 249 s

Time = 1025

Courant Number mean: 0.0365868 max: 0.293954
smoothSolver:  Solving for Ux, Initial residual = 0.00366134, Final residual = 8.33614e-06, No Iterations 1
smoothSolver:  Solving for Uy, Initial residual = 0.00366122, Final residual = 8.33586e-06, No Iterations 1
smoothSolver:  Solving for Uz, Initial residual = 0.00469431, Final residual = 2.87173e-06, No Iterations 1
DICPCG:  Solving for p, Initial residual = 0.000192161, Final residual = 7.9362e-06, No Iterations 431
time step continuity errors : sum local = 2.97338e-09, global = 2.00536e-11, cumulative = 1.63005e-08
DICPCG:  Solving for p, Initial residual = 1.69568e-05, Final residual = 9.07323e-07, No Iterations 416
time step continuity errors : sum local = 3.36657e-10, global = -7.6291e-12, cumulative = 1.62929e-08
ExecutionTime = 247.09 s  ClockTime = 254 s

Time = 1050

Courant Number mean: 0.036565 max: 0.293975
smoothSolver:  Solving for Ux, Initial residual = 0.00362291, Final residual = 8.03722e-06, No Iterations 1
smoothSolver:  Solving for Uy, Initial residual = 0.00362276, Final residual = 8.03691e-06, No Iterations 1
smoothSolver:  Solving for Uz, Initial residual = 0.00458054, Final residual = 2.79366e-06, No Iterations 1
DICPCG:  Solving for p, Initial residual = 0.000185583, Final residual = 8.31667e-06, No Iterations 430
time step continuity errors : sum local = 3.08691e-09, global = 1.51374e-11, cumulative = 1.6308e-08
DICPCG:  Solving for p, Initial residual = 1.69516e-05, Final residual = 9.63013e-07, No Iterations 414
time step continuity errors : sum local = 3.54071e-10, global = -9.03114e-12, cumulative = 1.6299e-08
ExecutionTime = 252.84 s  ClockTime = 260 s

Time = 1075

Courant Number mean: 0.0365435 max: 0.293994
smoothSolver:  Solving for Ux, Initial residual = 0.00358608, Final residual = 7.75415e-06, No Iterations 1
smoothSolver:  Solving for Uy, Initial residual = 0.00358592, Final residual = 7.75385e-06, No Iterations 1
smoothSolver:  Solving for Uz, Initial residual = 0.00447001, Final residual = 2.71827e-06, No Iterations 1
DICPCG:  Solving for p, Initial residual = 0.000182075, Final residual = 8.70284e-06, No Iterations 430
time step continuity errors : sum local = 3.20084e-09, global = 2.14055e-11, cumulative = 1.63204e-08
DICPCG:  Solving for p, Initial residual = 1.71088e-05, Final residual = 9.60761e-07, No Iterations 415
time step continuity errors : sum local = 3.50101e-10, global = -7.06712e-12, cumulative = 1.63133e-08
ExecutionTime = 258.43 s  ClockTime = 266 s

Time = 1100

Courant Number mean: 0.0365221 max: 0.29401
smoothSolver:  Solving for Ux, Initial residual = 0.00356007, Final residual = 7.48806e-06, No Iterations 1
smoothSolver:  Solving for Uy, Initial residual = 0.00355988, Final residual = 7.48779e-06, No Iterations 1
smoothSolver:  Solving for Uz, Initial residual = 0.00436308, Final residual = 2.64568e-06, No Iterations 1
DICPCG:  Solving for p, Initial residual = 0.000177458, Final residual = 8.59696e-06, No Iterations 430
time step continuity errors : sum local = 3.13376e-09, global = -2.02581e-12, cumulative = 1.63113e-08
DICPCG:  Solving for p, Initial residual = 1.6796e-05, Final residual = 9.85823e-07, No Iterations 413
time step continuity errors : sum local = 3.56108e-10, global = -9.87873e-12, cumulative = 1.63014e-08
ExecutionTime = 263.91 s  ClockTime = 271 s

Time = 1125

Courant Number mean: 0.036501 max: 0.294024
smoothSolver:  Solving for Ux, Initial residual = 0.00354259, Final residual = 7.23468e-06, No Iterations 1
smoothSolver:  Solving for Uy, Initial residual = 0.00354242, Final residual = 7.23439e-06, No Iterations 1
smoothSolver:  Solving for Uz, Initial residual = 0.00425973, Final residual = 2.57586e-06, No Iterations 1
DICPCG:  Solving for p, Initial residual = 0.000174455, Final residual = 7.402e-06, No Iterations 430
time step continuity errors : sum local = 2.67467e-09, global = -5.73355e-12, cumulative = 1.62957e-08
DICPCG:  Solving for p, Initial residual = 1.56201e-05, Final residual = 9.79261e-07, No Iterations 411
time step continuity errors : sum local = 3.50722e-10, global = -8.63049e-12, cumulative = 1.6287e-08
ExecutionTime = 269.23 s  ClockTime = 276 s

Time = 1150

Courant Number mean: 0.03648 max: 0.294036
smoothSolver:  Solving for Ux, Initial residual = 0.00352553, Final residual = 6.99443e-06, No Iterations 1
smoothSolver:  Solving for Uy, Initial residual = 0.00352538, Final residual = 6.9943e-06, No Iterations 1
smoothSolver:  Solving for Uz, Initial residual = 0.00416054, Final residual = 2.50915e-06, No Iterations 1
DICPCG:  Solving for p, Initial residual = 0.000169903, Final residual = 7.37146e-06, No Iterations 430
time step continuity errors : sum local = 2.64091e-09, global = 7.3067e-12, cumulative = 1.62943e-08
DICPCG:  Solving for p, Initial residual = 1.5423e-05, Final residual = 9.87377e-07, No Iterations 405
time step continuity errors : sum local = 3.50677e-10, global = -1.12069e-11, cumulative = 1.62831e-08
ExecutionTime = 274.46 s  ClockTime = 282 s

Time = 1175

Courant Number mean: 0.0364592 max: 0.294046
smoothSolver:  Solving for Ux, Initial residual = 0.00350775, Final residual = 6.77225e-06, No Iterations 1
smoothSolver:  Solving for Uy, Initial residual = 0.00350759, Final residual = 6.77209e-06, No Iterations 1
smoothSolver:  Solving for Uz, Initial residual = 0.00406525, Final residual = 2.44548e-06, No Iterations 1
DICPCG:  Solving for p, Initial residual = 0.000166684, Final residual = 7.84912e-06, No Iterations 429
time step continuity errors : sum local = 2.78853e-09, global = 1.23779e-11, cumulative = 1.62955e-08
DICPCG:  Solving for p, Initial residual = 1.5763e-05, Final residual = 9.73643e-07, No Iterations 412
time step continuity errors : sum local = 3.4297e-10, global = -7.17418e-12, cumulative = 1.62883e-08
ExecutionTime = 280.32 s  ClockTime = 288 s

Time = 1200

Courant Number mean: 0.0364386 max: 0.294056
smoothSolver:  Solving for Ux, Initial residual = 0.00349056, Final residual = 6.56061e-06, No Iterations 1
smoothSolver:  Solving for Uy, Initial residual = 0.00349039, Final residual = 6.56051e-06, No Iterations 1
smoothSolver:  Solving for Uz, Initial residual = 0.00397361, Final residual = 2.3845e-06, No Iterations 1
DICPCG:  Solving for p, Initial residual = 0.000162919, Final residual = 7.72303e-06, No Iterations 428
time step continuity errors : sum local = 2.72128e-09, global = -2.2292e-12, cumulative = 1.62861e-08
DICPCG:  Solving for p, Initial residual = 1.54495e-05, Final residual = 9.96191e-07, No Iterations 408
time step continuity errors : sum local = 3.48096e-10, global = -1.02519e-11, cumulative = 1.62759e-08
ExecutionTime = 285.73 s  ClockTime = 293 s

Time = 1225

Courant Number mean: 0.0364181 max: 0.294064
smoothSolver:  Solving for Ux, Initial residual = 0.00347386, Final residual = 6.36057e-06, No Iterations 1
smoothSolver:  Solving for Uy, Initial residual = 0.00347372, Final residual = 6.3606e-06, No Iterations 1
smoothSolver:  Solving for Uz, Initial residual = 0.00388544, Final residual = 2.3261e-06, No Iterations 1
DICPCG:  Solving for p, Initial residual = 0.000160632, Final residual = 6.85161e-06, No Iterations 429
time step continuity errors : sum local = 2.39484e-09, global = 1.89664e-11, cumulative = 1.62948e-08
DICPCG:  Solving for p, Initial residual = 1.45911e-05, Final residual = 9.94204e-07, No Iterations 405
time step continuity errors : sum local = 3.44669e-10, global = -1.12006e-11, cumulative = 1.62836e-08
ExecutionTime = 291.04 s  ClockTime = 299 s

Time = 1250

Courant Number mean: 0.0363978 max: 0.294071
smoothSolver:  Solving for Ux, Initial residual = 0.00345669, Final residual = 6.17034e-06, No Iterations 1
smoothSolver:  Solving for Uy, Initial residual = 0.00345653, Final residual = 6.17042e-06, No Iterations 1
smoothSolver:  Solving for Uz, Initial residual = 0.00380051, Final residual = 2.27021e-06, No Iterations 1
DICPCG:  Solving for p, Initial residual = 0.000157515, Final residual = 6.81366e-06, No Iterations 430
time step continuity errors : sum local = 2.36282e-09, global = 1.23438e-11, cumulative = 1.6296e-08
DICPCG:  Solving for p, Initial residual = 1.4318e-05, Final residual = 9.67747e-07, No Iterations 405
time step continuity errors : sum local = 3.32908e-10, global = -1.10313e-11, cumulative = 1.62849e-08
ExecutionTime = 296.26 s  ClockTime = 304 s

Time = 1275

Courant Number mean: 0.0363777 max: 0.294077
smoothSolver:  Solving for Ux, Initial residual = 0.00344129, Final residual = 5.99019e-06, No Iterations 1
smoothSolver:  Solving for Uy, Initial residual = 0.00344113, Final residual = 5.99039e-06, No Iterations 1
smoothSolver:  Solving for Uz, Initial residual = 0.00371866, Final residual = 2.21672e-06, No Iterations 1
DICPCG:  Solving for p, Initial residual = 0.000154428, Final residual = 7.0967e-06, No Iterations 428
time step continuity errors : sum local = 2.44197e-09, global = 1.56676e-11, cumulative = 1.63006e-08
DICPCG:  Solving for p, Initial residual = 1.44386e-05, Final residual = 9.62993e-07, No Iterations 405
time step continuity errors : sum local = 3.28764e-10, global = -1.07305e-11, cumulative = 1.62899e-08
ExecutionTime = 301.57 s  ClockTime = 309 s

Time = 1300

Courant Number mean: 0.0363578 max: 0.294083
smoothSolver:  Solving for Ux, Initial residual = 0.00343184, Final residual = 5.81781e-06, No Iterations 1
smoothSolver:  Solving for Uy, Initial residual = 0.00343168, Final residual = 5.81807e-06, No Iterations 1
smoothSolver:  Solving for Uz, Initial residual = 0.00363972, Final residual = 2.16542e-06, No Iterations 1
DICPCG:  Solving for p, Initial residual = 0.000151691, Final residual = 6.45077e-06, No Iterations 428
time step continuity errors : sum local = 2.20288e-09, global = 1.45994e-11, cumulative = 1.63045e-08
DICPCG:  Solving for p, Initial residual = 1.37688e-05, Final residual = 9.56242e-07, No Iterations 403
time step continuity errors : sum local = 3.24033e-10, global = -1.16119e-11, cumulative = 1.62929e-08
ExecutionTime = 306.91 s  ClockTime = 314 s

Time = 1325

Courant Number mean: 0.036338 max: 0.294088
smoothSolver:  Solving for Ux, Initial residual = 0.00342882, Final residual = 5.65498e-06, No Iterations 1
smoothSolver:  Solving for Uy, Initial residual = 0.00342868, Final residual = 5.65535e-06, No Iterations 1
smoothSolver:  Solving for Uz, Initial residual = 0.00356352, Final residual = 2.11616e-06, No Iterations 1
DICPCG:  Solving for p, Initial residual = 0.000149554, Final residual = 6.66901e-06, No Iterations 427
time step continuity errors : sum local = 2.26047e-09, global = -2.66102e-12, cumulative = 1.62902e-08
DICPCG:  Solving for p, Initial residual = 1.38423e-05, Final residual = 9.91879e-07, No Iterations 405
time step continuity errors : sum local = 3.33655e-10, global = -8.88498e-12, cumulative = 1.62813e-08
ExecutionTime = 312.47 s  ClockTime = 320 s

Time = 1350

Courant Number mean: 0.0363184 max: 0.294093
smoothSolver:  Solving for Ux, Initial residual = 0.00342408, Final residual = 5.50149e-06, No Iterations 1
smoothSolver:  Solving for Uy, Initial residual = 0.00342396, Final residual = 5.50193e-06, No Iterations 1
smoothSolver:  Solving for Uz, Initial residual = 0.00348994, Final residual = 2.06873e-06, No Iterations 1
DICPCG:  Solving for p, Initial residual = 0.000146987, Final residual = 6.73292e-06, No Iterations 428
time step continuity errors : sum local = 2.26546e-09, global = 2.42532e-11, cumulative = 1.63056e-08
DICPCG:  Solving for p, Initial residual = 1.37431e-05, Final residual = 9.76473e-07, No Iterations 407
time step continuity errors : sum local = 3.26117e-10, global = -9.96861e-12, cumulative = 1.62956e-08
ExecutionTime = 317.75 s  ClockTime = 325 s

Time = 1375

Courant Number mean: 0.0362989 max: 0.294097
smoothSolver:  Solving for Ux, Initial residual = 0.0034173, Final residual = 5.35426e-06, No Iterations 1
smoothSolver:  Solving for Uy, Initial residual = 0.00341697, Final residual = 5.35435e-06, No Iterations 1
smoothSolver:  Solving for Uz, Initial residual = 0.0034201, Final residual = 2.02333e-06, No Iterations 1
DICPCG:  Solving for p, Initial residual = 0.00014493, Final residual = 7.1796e-06, No Iterations 428
time step continuity errors : sum local = 2.39842e-09, global = 6.61208e-12, cumulative = 1.63022e-08
DICPCG:  Solving for p, Initial residual = 1.40024e-05, Final residual = 9.88715e-07, No Iterations 400
time step continuity errors : sum local = 3.2788e-10, global = -1.13892e-11, cumulative = 1.62908e-08
ExecutionTime = 323.07 s  ClockTime = 331 s

Time = 1400

Courant Number mean: 0.0362796 max: 0.294101
smoothSolver:  Solving for Ux, Initial residual = 0.00341006, Final residual = 5.21496e-06, No Iterations 1
smoothSolver:  Solving for Uy, Initial residual = 0.00341009, Final residual = 5.21563e-06, No Iterations 1
smoothSolver:  Solving for Uz, Initial residual = 0.0033529, Final residual = 1.97975e-06, No Iterations 1
DICPCG:  Solving for p, Initial residual = 0.00014223, Final residual = 6.94777e-06, No Iterations 428
time step continuity errors : sum local = 2.30461e-09, global = 1.1677e-11, cumulative = 1.63025e-08
DICPCG:  Solving for p, Initial residual = 1.3681e-05, Final residual = 9.99667e-07, No Iterations 405
time step continuity errors : sum local = 3.29218e-10, global = -1.03114e-11, cumulative = 1.62922e-08
ExecutionTime = 328.37 s  ClockTime = 336 s

Time = 1425

Courant Number mean: 0.0362604 max: 0.294104
smoothSolver:  Solving for Ux, Initial residual = 0.00340237, Final residual = 5.08041e-06, No Iterations 1
smoothSolver:  Solving for Uy, Initial residual = 0.00340223, Final residual = 5.08073e-06, No Iterations 1
smoothSolver:  Solving for Uz, Initial residual = 0.00328809, Final residual = 1.93794e-06, No Iterations 1
DICPCG:  Solving for p, Initial residual = 0.000140065, Final residual = 6.27216e-06, No Iterations 429
time step continuity errors : sum local = 2.06611e-09, global = 3.64794e-11, cumulative = 1.63287e-08
DICPCG:  Solving for p, Initial residual = 1.30047e-05, Final residual = 9.95998e-07, No Iterations 399
time step continuity errors : sum local = 3.25779e-10, global = -1.18563e-11, cumulative = 1.63168e-08
ExecutionTime = 333.7 s  ClockTime = 341 s

Time = 1450

Courant Number mean: 0.0362413 max: 0.294107
smoothSolver:  Solving for Ux, Initial residual = 0.0033926, Final residual = 4.94966e-06, No Iterations 1
smoothSolver:  Solving for Uy, Initial residual = 0.00339251, Final residual = 4.95011e-06, No Iterations 1
smoothSolver:  Solving for Uz, Initial residual = 0.00322792, Final residual = 1.89782e-06, No Iterations 1
DICPCG:  Solving for p, Initial residual = 0.000138756, Final residual = 6.38638e-06, No Iterations 429
time step continuity errors : sum local = 2.08941e-09, global = 1.26602e-11, cumulative = 1.63295e-08
DICPCG:  Solving for p, Initial residual = 1.30228e-05, Final residual = 9.82908e-07, No Iterations 399
time step continuity errors : sum local = 3.19347e-10, global = -1.02424e-11, cumulative = 1.63192e-08
ExecutionTime = 338.88 s  ClockTime = 346 s

Time = 1475

Courant Number mean: 0.0362225 max: 0.29411
smoothSolver:  Solving for Ux, Initial residual = 0.00338287, Final residual = 4.82743e-06, No Iterations 1
smoothSolver:  Solving for Uy, Initial residual = 0.0033827, Final residual = 4.82765e-06, No Iterations 1
smoothSolver:  Solving for Uz, Initial residual = 0.00316981, Final residual = 1.85903e-06, No Iterations 1
DICPCG:  Solving for p, Initial residual = 0.000137206, Final residual = 6.48035e-06, No Iterations 429
time step continuity errors : sum local = 2.10596e-09, global = 2.7529e-12, cumulative = 1.6322e-08
DICPCG:  Solving for p, Initial residual = 1.29934e-05, Final residual = 9.89257e-07, No Iterations 400
time step continuity errors : sum local = 3.19295e-10, global = -1.06823e-11, cumulative = 1.63113e-08
ExecutionTime = 344.22 s  ClockTime = 352 s

Time = 1500

Courant Number mean: 0.0362037 max: 0.294112
smoothSolver:  Solving for Ux, Initial residual = 0.0033722, Final residual = 4.70904e-06, No Iterations 1
smoothSolver:  Solving for Uy, Initial residual = 0.00337227, Final residual = 4.70979e-06, No Iterations 1
smoothSolver:  Solving for Uz, Initial residual = 0.00311346, Final residual = 1.8215e-06, No Iterations 1
DICPCG:  Solving for p, Initial residual = 0.000134669, Final residual = 5.63835e-06, No Iterations 425
time step continuity errors : sum local = 1.82027e-09, global = -1.00338e-11, cumulative = 1.63013e-08
DICPCG:  Solving for p, Initial residual = 1.21474e-05, Final residual = 9.97886e-07, No Iterations 400
time step continuity errors : sum local = 3.19995e-10, global = -9.92601e-12, cumulative = 1.62913e-08
ExecutionTime = 349.43 s  ClockTime = 357 s

Time = 1525

Courant Number mean: 0.0361851 max: 0.294115
smoothSolver:  Solving for Ux, Initial residual = 0.00335942, Final residual = 4.59897e-06, No Iterations 1
smoothSolver:  Solving for Uy, Initial residual = 0.00335927, Final residual = 4.59925e-06, No Iterations 1
smoothSolver:  Solving for Uz, Initial residual = 0.00305879, Final residual = 1.78525e-06, No Iterations 1
DICPCG:  Solving for p, Initial residual = 0.00013177, Final residual = 6.08151e-06, No Iterations 426
time step continuity errors : sum local = 1.95063e-09, global = -2.98163e-12, cumulative = 1.62884e-08
DICPCG:  Solving for p, Initial residual = 1.23235e-05, Final residual = 9.96356e-07, No Iterations 53
time step continuity errors : sum local = 3.17472e-10, global = -4.20239e-11, cumulative = 1.62463e-08
ExecutionTime = 352.61 s  ClockTime = 360 s

Time = 1550

Courant Number mean: 0.0361666 max: 0.294117
smoothSolver:  Solving for Ux, Initial residual = 0.00334846, Final residual = 4.49313e-06, No Iterations 1
smoothSolver:  Solving for Uy, Initial residual = 0.00334839, Final residual = 4.49353e-06, No Iterations 1
smoothSolver:  Solving for Uz, Initial residual = 0.00300556, Final residual = 1.75031e-06, No Iterations 1
DICPCG:  Solving for p, Initial residual = 0.000131933, Final residual = 6.23439e-06, No Iterations 428
time step continuity errors : sum local = 1.9864e-09, global = -1.06127e-11, cumulative = 1.62357e-08
DICPCG:  Solving for p, Initial residual = 1.23677e-05, Final residual = 9.74915e-07, No Iterations 51
time step continuity errors : sum local = 3.08779e-10, global = -3.86296e-11, cumulative = 1.61971e-08
ExecutionTime = 355.76 s  ClockTime = 363 s

Time = 1575

Courant Number mean: 0.0361483 max: 0.294119
smoothSolver:  Solving for Ux, Initial residual = 0.00332995, Final residual = 4.39123e-06, No Iterations 1
smoothSolver:  Solving for Uy, Initial residual = 0.00332987, Final residual = 4.39206e-06, No Iterations 1
smoothSolver:  Solving for Uz, Initial residual = 0.00295418, Final residual = 1.71615e-06, No Iterations 1
DICPCG:  Solving for p, Initial residual = 0.000128559, Final residual = 5.22643e-06, No Iterations 424
time step continuity errors : sum local = 1.65527e-09, global = -9.29692e-12, cumulative = 1.61878e-08
DICPCG:  Solving for p, Initial residual = 1.14077e-05, Final residual = 9.87426e-07, No Iterations 48
time step continuity errors : sum local = 3.10805e-10, global = -4.01115e-11, cumulative = 1.61477e-08
ExecutionTime = 358.93 s  ClockTime = 367 s

Time = 1600

Courant Number mean: 0.0361301 max: 0.294121
smoothSolver:  Solving for Ux, Initial residual = 0.00331324, Final residual = 4.29205e-06, No Iterations 1
smoothSolver:  Solving for Uy, Initial residual = 0.00331319, Final residual = 4.2926e-06, No Iterations 1
smoothSolver:  Solving for Uz, Initial residual = 0.00290409, Final residual = 1.68324e-06, No Iterations 1
DICPCG:  Solving for p, Initial residual = 0.00012612, Final residual = 5.85372e-06, No Iterations 424
time step continuity errors : sum local = 1.84246e-09, global = -1.23171e-11, cumulative = 1.61354e-08
DICPCG:  Solving for p, Initial residual = 1.18133e-05, Final residual = 9.82051e-07, No Iterations 45
time step continuity errors : sum local = 3.07241e-10, global = -3.86728e-11, cumulative = 1.60967e-08
ExecutionTime = 362.01 s  ClockTime = 370 s

Time = 1625

Courant Number mean: 0.036112 max: 0.294123
smoothSolver:  Solving for Ux, Initial residual = 0.00329518, Final residual = 4.19802e-06, No Iterations 1
smoothSolver:  Solving for Uy, Initial residual = 0.00329511, Final residual = 4.19842e-06, No Iterations 1
smoothSolver:  Solving for Uz, Initial residual = 0.00285542, Final residual = 1.6515e-06, No Iterations 1
DICPCG:  Solving for p, Initial residual = 0.000124292, Final residual = 6.01103e-06, No Iterations 426
time step continuity errors : sum local = 1.88052e-09, global = -4.09419e-12, cumulative = 1.60926e-08
DICPCG:  Solving for p, Initial residual = 1.1834e-05, Final residual = 9.96747e-07, No Iterations 36
time step continuity errors : sum local = 3.09977e-10, global = -4.4086e-11, cumulative = 1.60485e-08
ExecutionTime = 365.14 s  ClockTime = 373 s

Time = 1650

Courant Number mean: 0.0360941 max: 0.294124
smoothSolver:  Solving for Ux, Initial residual = 0.00327587, Final residual = 4.10808e-06, No Iterations 1
smoothSolver:  Solving for Uy, Initial residual = 0.00327588, Final residual = 4.10835e-06, No Iterations 1
smoothSolver:  Solving for Uz, Initial residual = 0.00280809, Final residual = 1.62098e-06, No Iterations 1
DICPCG:  Solving for p, Initial residual = 0.000123147, Final residual = 5.23557e-06, No Iterations 424
time step continuity errors : sum local = 1.62814e-09, global = 5.81968e-12, cumulative = 1.60543e-08
DICPCG:  Solving for p, Initial residual = 1.11237e-05, Final residual = 9.9036e-07, No Iterations 38
time step continuity errors : sum local = 3.06179e-10, global = -3.9267e-11, cumulative = 1.60151e-08
ExecutionTime = 368.2 s  ClockTime = 376 s

Time = 1675

Courant Number mean: 0.0360762 max: 0.294126
smoothSolver:  Solving for Ux, Initial residual = 0.00325709, Final residual = 4.0224e-06, No Iterations 1
smoothSolver:  Solving for Uy, Initial residual = 0.00325698, Final residual = 4.02275e-06, No Iterations 1
smoothSolver:  Solving for Uz, Initial residual = 0.00276204, Final residual = 1.59148e-06, No Iterations 1
DICPCG:  Solving for p, Initial residual = 0.000120421, Final residual = 5.31601e-06, No Iterations 426
time step continuity errors : sum local = 1.64343e-09, global = -1.59381e-11, cumulative = 1.59991e-08
DICPCG:  Solving for p, Initial residual = 1.10633e-05, Final residual = 9.89094e-07, No Iterations 35
time step continuity errors : sum local = 3.04017e-10, global = -4.73256e-11, cumulative = 1.59518e-08
ExecutionTime = 371.51 s  ClockTime = 379 s

Time = 1700

Courant Number mean: 0.0360585 max: 0.294127
smoothSolver:  Solving for Ux, Initial residual = 0.00323633, Final residual = 3.93983e-06, No Iterations 1
smoothSolver:  Solving for Uy, Initial residual = 0.00323629, Final residual = 3.94001e-06, No Iterations 1
smoothSolver:  Solving for Uz, Initial residual = 0.00271723, Final residual = 1.56281e-06, No Iterations 1
DICPCG:  Solving for p, Initial residual = 0.000118744, Final residual = 5.72501e-06, No Iterations 424
time step continuity errors : sum local = 1.75962e-09, global = 2.38354e-11, cumulative = 1.59756e-08
DICPCG:  Solving for p, Initial residual = 1.13012e-05, Final residual = 9.94116e-07, No Iterations 35
time step continuity errors : sum local = 3.03819e-10, global = -4.64365e-11, cumulative = 1.59292e-08
ExecutionTime = 374.68 s  ClockTime = 382 s

Time = 1725

Courant Number mean: 0.036041 max: 0.294129
smoothSolver:  Solving for Ux, Initial residual = 0.00321452, Final residual = 3.86023e-06, No Iterations 1
smoothSolver:  Solving for Uy, Initial residual = 0.00321445, Final residual = 3.86057e-06, No Iterations 1
smoothSolver:  Solving for Uz, Initial residual = 0.0026736, Final residual = 1.53496e-06, No Iterations 1
DICPCG:  Solving for p, Initial residual = 0.000116969, Final residual = 5.80614e-06, No Iterations 429
time step continuity errors : sum local = 1.77438e-09, global = 2.13466e-11, cumulative = 1.59506e-08
DICPCG:  Solving for p, Initial residual = 1.13323e-05, Final residual = 9.93005e-07, No Iterations 35
time step continuity errors : sum local = 3.01774e-10, global = -4.3742e-11, cumulative = 1.59068e-08
ExecutionTime = 377.78 s  ClockTime = 385 s

Time = 1750

Courant Number mean: 0.0360235 max: 0.29413
smoothSolver:  Solving for Ux, Initial residual = 0.00319256, Final residual = 3.78284e-06, No Iterations 1
smoothSolver:  Solving for Uy, Initial residual = 0.00319252, Final residual = 3.78341e-06, No Iterations 1
smoothSolver:  Solving for Uz, Initial residual = 0.00263121, Final residual = 1.50787e-06, No Iterations 1
DICPCG:  Solving for p, Initial residual = 0.000114966, Final residual = 5.5527e-06, No Iterations 424
time step continuity errors : sum local = 1.6874e-09, global = -9.20503e-12, cumulative = 1.58976e-08
DICPCG:  Solving for p, Initial residual = 1.10116e-05, Final residual = 9.77014e-07, No Iterations 37
time step continuity errors : sum local = 2.95271e-10, global = -3.62866e-11, cumulative = 1.58613e-08
ExecutionTime = 380.82 s  ClockTime = 388 s

Time = 1775

Courant Number mean: 0.0360062 max: 0.294131
smoothSolver:  Solving for Ux, Initial residual = 0.00317007, Final residual = 3.70976e-06, No Iterations 1
smoothSolver:  Solving for Uy, Initial residual = 0.00317004, Final residual = 3.71016e-06, No Iterations 1
smoothSolver:  Solving for Uz, Initial residual = 0.00259164, Final residual = 1.48169e-06, No Iterations 1
DICPCG:  Solving for p, Initial residual = 0.000114732, Final residual = 4.61679e-06, No Iterations 423
time step continuity errors : sum local = 1.39523e-09, global = -1.43883e-12, cumulative = 1.58599e-08
DICPCG:  Solving for p, Initial residual = 1.02197e-05, Final residual = 9.87307e-07, No Iterations 35
time step continuity errors : sum local = 2.96755e-10, global = -4.51632e-11, cumulative = 1.58147e-08
ExecutionTime = 384 s  ClockTime = 392 s

Time = 1800

Courant Number mean: 0.035989 max: 0.294133
smoothSolver:  Solving for Ux, Initial residual = 0.00314799, Final residual = 3.63855e-06, No Iterations 1
smoothSolver:  Solving for Uy, Initial residual = 0.0031479, Final residual = 3.63885e-06, No Iterations 1
smoothSolver:  Solving for Uz, Initial residual = 0.0025533, Final residual = 1.45632e-06, No Iterations 1
DICPCG:  Solving for p, Initial residual = 0.000112923, Final residual = 5.24905e-06, No Iterations 422
time step continuity errors : sum local = 1.57765e-09, global = -1.25417e-11, cumulative = 1.58022e-08
DICPCG:  Solving for p, Initial residual = 1.06209e-05, Final residual = 9.79868e-07, No Iterations 30
time step continuity errors : sum local = 2.92937e-10, global = -4.66107e-11, cumulative = 1.57556e-08
ExecutionTime = 386.96 s  ClockTime = 395 s

Time = 1825

Courant Number mean: 0.0359719 max: 0.294134
smoothSolver:  Solving for Ux, Initial residual = 0.00312355, Final residual = 3.56932e-06, No Iterations 1
smoothSolver:  Solving for Uy, Initial residual = 0.00312355, Final residual = 3.56978e-06, No Iterations 1
smoothSolver:  Solving for Uz, Initial residual = 0.00251591, Final residual = 1.43168e-06, No Iterations 1
DICPCG:  Solving for p, Initial residual = 0.000111131, Final residual = 4.78234e-06, No Iterations 430
time step continuity errors : sum local = 1.42965e-09, global = 1.84046e-11, cumulative = 1.5774e-08
DICPCG:  Solving for p, Initial residual = 1.01454e-05, Final residual = 9.79122e-07, No Iterations 33
time step continuity errors : sum local = 2.91164e-10, global = -3.94313e-11, cumulative = 1.57345e-08
ExecutionTime = 390.1 s  ClockTime = 398 s

Time = 1850

Courant Number mean: 0.0359549 max: 0.294135
smoothSolver:  Solving for Ux, Initial residual = 0.00310072, Final residual = 3.50226e-06, No Iterations 1
smoothSolver:  Solving for Uy, Initial residual = 0.00310068, Final residual = 3.50267e-06, No Iterations 1
smoothSolver:  Solving for Uz, Initial residual = 0.00247962, Final residual = 1.40782e-06, No Iterations 1
DICPCG:  Solving for p, Initial residual = 0.000109179, Final residual = 5.08922e-06, No Iterations 429
time step continuity errors : sum local = 1.51334e-09, global = 1.61721e-11, cumulative = 1.57507e-08
DICPCG:  Solving for p, Initial residual = 1.03304e-05, Final residual = 9.78163e-07, No Iterations 35
time step continuity errors : sum local = 2.8936e-10, global = -4.04319e-11, cumulative = 1.57103e-08
ExecutionTime = 393.18 s  ClockTime = 401 s

Time = 1875

Courant Number mean: 0.035938 max: 0.294136
smoothSolver:  Solving for Ux, Initial residual = 0.00307732, Final residual = 3.43816e-06, No Iterations 1
smoothSolver:  Solving for Uy, Initial residual = 0.0030773, Final residual = 3.43853e-06, No Iterations 1
smoothSolver:  Solving for Uz, Initial residual = 0.00244567, Final residual = 1.38467e-06, No Iterations 1
DICPCG:  Solving for p, Initial residual = 0.000108073, Final residual = 4.97427e-06, No Iterations 428
time step continuity errors : sum local = 1.47144e-09, global = 1.57064e-11, cumulative = 1.5726e-08
DICPCG:  Solving for p, Initial residual = 1.0145e-05, Final residual = 9.83281e-07, No Iterations 33
time step continuity errors : sum local = 2.89377e-10, global = -3.95701e-11, cumulative = 1.56864e-08
ExecutionTime = 396.37 s  ClockTime = 404 s

Time = 1900

Courant Number mean: 0.0359213 max: 0.294137
smoothSolver:  Solving for Ux, Initial residual = 0.00305327, Final residual = 3.37489e-06, No Iterations 1
smoothSolver:  Solving for Uy, Initial residual = 0.00305325, Final residual = 3.3753e-06, No Iterations 1
smoothSolver:  Solving for Uz, Initial residual = 0.00241274, Final residual = 1.36229e-06, No Iterations 1
DICPCG:  Solving for p, Initial residual = 0.000105913, Final residual = 4.76165e-06, No Iterations 430
time step continuity errors : sum local = 1.40129e-09, global = 1.81824e-11, cumulative = 1.57046e-08
DICPCG:  Solving for p, Initial residual = 9.86598e-06, Final residual = 9.74306e-07, No Iterations 30
time step continuity errors : sum local = 2.85281e-10, global = -4.41886e-11, cumulative = 1.56604e-08
ExecutionTime = 399.6 s  ClockTime = 407 s

Time = 1925

Courant Number mean: 0.0359046 max: 0.294138
smoothSolver:  Solving for Ux, Initial residual = 0.00302907, Final residual = 3.31508e-06, No Iterations 1
smoothSolver:  Solving for Uy, Initial residual = 0.00302906, Final residual = 3.31545e-06, No Iterations 1
smoothSolver:  Solving for Uz, Initial residual = 0.00238057, Final residual = 1.34081e-06, No Iterations 1
DICPCG:  Solving for p, Initial residual = 0.000104882, Final residual = 5.12168e-06, No Iterations 426
time step continuity errors : sum local = 1.4996e-09, global = 3.04143e-11, cumulative = 1.56908e-08
DICPCG:  Solving for p, Initial residual = 1.00487e-05, Final residual = 9.83814e-07, No Iterations 33
time step continuity errors : sum local = 2.86624e-10, global = -3.92105e-11, cumulative = 1.56516e-08
ExecutionTime = 403.12 s  ClockTime = 411 s

Time = 1950

Courant Number mean: 0.0358881 max: 0.29414
smoothSolver:  Solving for Ux, Initial residual = 0.00300446, Final residual = 3.25513e-06, No Iterations 1
smoothSolver:  Solving for Uy, Initial residual = 0.00300434, Final residual = 3.25541e-06, No Iterations 1
smoothSolver:  Solving for Uz, Initial residual = 0.00234912, Final residual = 1.31994e-06, No Iterations 1
DICPCG:  Solving for p, Initial residual = 0.000104379, Final residual = 5.03523e-06, No Iterations 429
time step continuity errors : sum local = 1.46691e-09, global = 1.6793e-11, cumulative = 1.56684e-08
DICPCG:  Solving for p, Initial residual = 1.00001e-05, Final residual = 9.91309e-07, No Iterations 30
time step continuity errors : sum local = 2.87381e-10, global = -4.38671e-11, cumulative = 1.56245e-08
ExecutionTime = 406.62 s  ClockTime = 414 s

Time = 1975

Courant Number mean: 0.0358717 max: 0.294141
smoothSolver:  Solving for Ux, Initial residual = 0.00298117, Final residual = 3.19823e-06, No Iterations 1
smoothSolver:  Solving for Uy, Initial residual = 0.00298111, Final residual = 3.1985e-06, No Iterations 1
smoothSolver:  Solving for Uz, Initial residual = 0.00231837, Final residual = 1.29962e-06, No Iterations 1
DICPCG:  Solving for p, Initial residual = 0.00010269, Final residual = 4.33109e-06, No Iterations 431
time step continuity errors : sum local = 1.25554e-09, global = 1.34545e-11, cumulative = 1.5638e-08
DICPCG:  Solving for p, Initial residual = 9.3371e-06, Final residual = 9.92885e-07, No Iterations 24
time step continuity errors : sum local = 2.86436e-10, global = -4.58939e-11, cumulative = 1.55921e-08
ExecutionTime = 410.18 s  ClockTime = 418 s

Time = 2000

Courant Number mean: 0.0358553 max: 0.294142
smoothSolver:  Solving for Ux, Initial residual = 0.00295536, Final residual = 3.14013e-06, No Iterations 1
smoothSolver:  Solving for Uy, Initial residual = 0.00295547, Final residual = 3.14051e-06, No Iterations 1
smoothSolver:  Solving for Uz, Initial residual = 0.0022883, Final residual = 1.27987e-06, No Iterations 1
DICPCG:  Solving for p, Initial residual = 0.000101696, Final residual = 4.85847e-06, No Iterations 423
time step continuity errors : sum local = 1.40157e-09, global = -1.85312e-11, cumulative = 1.55736e-08
DICPCG:  Solving for p, Initial residual = 9.7137e-06, Final residual = 9.75023e-07, No Iterations 27
time step continuity errors : sum local = 2.79932e-10, global = -4.12113e-11, cumulative = 1.55324e-08
ExecutionTime = 413.67 s  ClockTime = 421 s

Time = 2025

Courant Number mean: 0.0358391 max: 0.294142
smoothSolver:  Solving for Ux, Initial residual = 0.00293215, Final residual = 3.08829e-06, No Iterations 1
smoothSolver:  Solving for Uy, Initial residual = 0.00293214, Final residual = 3.08847e-06, No Iterations 1
smoothSolver:  Solving for Uz, Initial residual = 0.00225888, Final residual = 1.26079e-06, No Iterations 1
DICPCG:  Solving for p, Initial residual = 0.000100133, Final residual = 4.54235e-06, No Iterations 425
time step continuity errors : sum local = 1.30408e-09, global = 6.88179e-12, cumulative = 1.55392e-08
DICPCG:  Solving for p, Initial residual = 9.42656e-06, Final residual = 9.90719e-07, No Iterations 22
time step continuity errors : sum local = 2.8309e-10, global = -4.9717e-11, cumulative = 1.54895e-08
ExecutionTime = 417.08 s  ClockTime = 425 s

Time = 2050

Courant Number mean: 0.035823 max: 0.294143
smoothSolver:  Solving for Ux, Initial residual = 0.00290785, Final residual = 3.03287e-06, No Iterations 1
smoothSolver:  Solving for Uy, Initial residual = 0.00290792, Final residual = 3.03323e-06, No Iterations 1
smoothSolver:  Solving for Uz, Initial residual = 0.00223009, Final residual = 1.24274e-06, No Iterations 1
DICPCG:  Solving for p, Initial residual = 9.84451e-05, Final residual = 4.79024e-06, No Iterations 425
time step continuity errors : sum local = 1.36873e-09, global = 1.6827e-11, cumulative = 1.55063e-08
DICPCG:  Solving for p, Initial residual = 9.52176e-06, Final residual = 9.6676e-07, No Iterations 23
time step continuity errors : sum local = 2.74952e-10, global = -4.4125e-11, cumulative = 1.54622e-08
ExecutionTime = 420.66 s  ClockTime = 429 s

Time = 2075

Courant Number mean: 0.035807 max: 0.294144
smoothSolver:  Solving for Ux, Initial residual = 0.00288366, Final residual = 2.98126e-06, No Iterations 1
smoothSolver:  Solving for Uy, Initial residual = 0.00288365, Final residual = 2.98146e-06, No Iterations 1
smoothSolver:  Solving for Uz, Initial residual = 0.00220191, Final residual = 1.22524e-06, No Iterations 1
DICPCG:  Solving for p, Initial residual = 9.67204e-05, Final residual = 3.92319e-06, No Iterations 431
time step continuity errors : sum local = 1.11574e-09, global = 2.17488e-11, cumulative = 1.5484e-08
DICPCG:  Solving for p, Initial residual = 8.72765e-06, Final residual = 9.96951e-07, No Iterations 23
time step continuity errors : sum local = 2.82229e-10, global = -4.37242e-11, cumulative = 1.54402e-08
ExecutionTime = 424.13 s  ClockTime = 432 s

Time = 2100

Courant Number mean: 0.0357911 max: 0.294145
smoothSolver:  Solving for Ux, Initial residual = 0.00285879, Final residual = 2.92936e-06, No Iterations 1
smoothSolver:  Solving for Uy, Initial residual = 0.00285879, Final residual = 2.92966e-06, No Iterations 1
smoothSolver:  Solving for Uz, Initial residual = 0.00217433, Final residual = 1.20828e-06, No Iterations 1
DICPCG:  Solving for p, Initial residual = 9.5484e-05, Final residual = 4.18456e-06, No Iterations 430
time step continuity errors : sum local = 1.18458e-09, global = 1.56016e-11, cumulative = 1.54558e-08
DICPCG:  Solving for p, Initial residual = 8.85949e-06, Final residual = 9.5936e-07, No Iterations 23
time step continuity errors : sum local = 2.7035e-10, global = -4.39801e-11, cumulative = 1.54119e-08
ExecutionTime = 427.42 s  ClockTime = 435 s

Time = 2125

Courant Number mean: 0.0357752 max: 0.294146
smoothSolver:  Solving for Ux, Initial residual = 0.00283368, Final residual = 2.87925e-06, No Iterations 1
smoothSolver:  Solving for Uy, Initial residual = 0.00283366, Final residual = 2.87944e-06, No Iterations 1
smoothSolver:  Solving for Uz, Initial residual = 0.00214733, Final residual = 1.19182e-06, No Iterations 1
DICPCG:  Solving for p, Initial residual = 9.49537e-05, Final residual = 4.44879e-06, No Iterations 430
time step continuity errors : sum local = 1.25364e-09, global = 1.74248e-11, cumulative = 1.54293e-08
DICPCG:  Solving for p, Initial residual = 9.02675e-06, Final residual = 9.66982e-07, No Iterations 23
time step continuity errors : sum local = 2.71272e-10, global = -4.32067e-11, cumulative = 1.53861e-08
ExecutionTime = 431.12 s  ClockTime = 439 s

Time = 2150

Courant Number mean: 0.0357595 max: 0.294147
smoothSolver:  Solving for Ux, Initial residual = 0.00280879, Final residual = 2.82915e-06, No Iterations 1
smoothSolver:  Solving for Uy, Initial residual = 0.00280878, Final residual = 2.82948e-06, No Iterations 1
smoothSolver:  Solving for Uz, Initial residual = 0.00212089, Final residual = 1.17583e-06, No Iterations 1
DICPCG:  Solving for p, Initial residual = 9.36243e-05, Final residual = 4.43835e-06, No Iterations 428
time step continuity errors : sum local = 1.24507e-09, global = 1.39328e-11, cumulative = 1.54e-08
DICPCG:  Solving for p, Initial residual = 8.94816e-06, Final residual = 9.9915e-07, No Iterations 20
time step continuity errors : sum local = 2.79052e-10, global = -4.39394e-11, cumulative = 1.53561e-08
ExecutionTime = 434.61 s  ClockTime = 443 s

Time = 2175

Courant Number mean: 0.0357439 max: 0.294148
smoothSolver:  Solving for Ux, Initial residual = 0.00278409, Final residual = 2.78192e-06, No Iterations 1
smoothSolver:  Solving for Uy, Initial residual = 0.00278408, Final residual = 2.78212e-06, No Iterations 1
smoothSolver:  Solving for Uz, Initial residual = 0.00209498, Final residual = 1.16035e-06, No Iterations 1
DICPCG:  Solving for p, Initial residual = 9.23962e-05, Final residual = 4.21991e-06, No Iterations 430
time step continuity errors : sum local = 1.17854e-09, global = 2.1792e-11, cumulative = 1.53779e-08
DICPCG:  Solving for p, Initial residual = 8.70853e-06, Final residual = 9.80893e-07, No Iterations 23
time step continuity errors : sum local = 2.72752e-10, global = -4.05923e-11, cumulative = 1.53373e-08
ExecutionTime = 438.15 s  ClockTime = 446 s

Time = 2200

Courant Number mean: 0.0357284 max: 0.294149
smoothSolver:  Solving for Ux, Initial residual = 0.00275899, Final residual = 2.73367e-06, No Iterations 1
smoothSolver:  Solving for Uy, Initial residual = 0.00275913, Final residual = 2.73397e-06, No Iterations 1
smoothSolver:  Solving for Uz, Initial residual = 0.00206958, Final residual = 1.14519e-06, No Iterations 1
DICPCG:  Solving for p, Initial residual = 9.17485e-05, Final residual = 4.34817e-06, No Iterations 427
time step continuity errors : sum local = 1.20904e-09, global = 1.58158e-11, cumulative = 1.53531e-08
DICPCG:  Solving for p, Initial residual = 8.80389e-06, Final residual = 9.88895e-07, No Iterations 20
time step continuity errors : sum local = 2.73787e-10, global = -4.18021e-11, cumulative = 1.53113e-08
ExecutionTime = 441.49 s  ClockTime = 450 s

Time = 2225

Courant Number mean: 0.035713 max: 0.29415
smoothSolver:  Solving for Ux, Initial residual = 0.00273425, Final residual = 2.68908e-06, No Iterations 1
smoothSolver:  Solving for Uy, Initial residual = 0.00273415, Final residual = 2.68924e-06, No Iterations 1
smoothSolver:  Solving for Uz, Initial residual = 0.00204469, Final residual = 1.1304e-06, No Iterations 1
DICPCG:  Solving for p, Initial residual = 9.02697e-05, Final residual = 4.45743e-06, No Iterations 423
time step continuity errors : sum local = 1.23406e-09, global = -6.77906e-12, cumulative = 1.53045e-08
DICPCG:  Solving for p, Initial residual = 8.83081e-06, Final residual = 9.82865e-07, No Iterations 22
time step continuity errors : sum local = 2.70954e-10, global = -4.44736e-11, cumulative = 1.526e-08
ExecutionTime = 444.88 s  ClockTime = 453 s

Time = 2250

Courant Number mean: 0.0356976 max: 0.29415
smoothSolver:  Solving for Ux, Initial residual = 0.00270873, Final residual = 2.64408e-06, No Iterations 1
smoothSolver:  Solving for Uy, Initial residual = 0.00270883, Final residual = 2.64433e-06, No Iterations 1
smoothSolver:  Solving for Uz, Initial residual = 0.00202029, Final residual = 1.1162e-06, No Iterations 1
DICPCG:  Solving for p, Initial residual = 8.91254e-05, Final residual = 4.03837e-06, No Iterations 431
time step continuity errors : sum local = 1.11326e-09, global = 8.24955e-12, cumulative = 1.52683e-08
DICPCG:  Solving for p, Initial residual = 8.41051e-06, Final residual = 9.77594e-07, No Iterations 22
time step continuity errors : sum local = 2.68364e-10, global = -4.49409e-11, cumulative = 1.52234e-08
ExecutionTime = 448.29 s  ClockTime = 457 s

Time = 2275

Courant Number mean: 0.0356824 max: 0.294151
smoothSolver:  Solving for Ux, Initial residual = 0.00268378, Final residual = 2.60021e-06, No Iterations 1
smoothSolver:  Solving for Uy, Initial residual = 0.00268369, Final residual = 2.60036e-06, No Iterations 1
smoothSolver:  Solving for Uz, Initial residual = 0.00199636, Final residual = 1.10239e-06, No Iterations 1
DICPCG:  Solving for p, Initial residual = 8.76829e-05, Final residual = 4.16821e-06, No Iterations 429
time step continuity errors : sum local = 1.1442e-09, global = 1.24803e-11, cumulative = 1.52358e-08
DICPCG:  Solving for p, Initial residual = 8.47395e-06, Final residual = 9.70118e-07, No Iterations 20
time step continuity errors : sum local = 2.65201e-10, global = -4.25994e-11, cumulative = 1.51932e-08
ExecutionTime = 451.7 s  ClockTime = 460 s

Time = 2300

Courant Number mean: 0.0356673 max: 0.294152
smoothSolver:  Solving for Ux, Initial residual = 0.00265807, Final residual = 2.55612e-06, No Iterations 1
smoothSolver:  Solving for Uy, Initial residual = 0.00265814, Final residual = 2.55638e-06, No Iterations 1
smoothSolver:  Solving for Uz, Initial residual = 0.00197289, Final residual = 1.08891e-06, No Iterations 1
DICPCG:  Solving for p, Initial residual = 8.65488e-05, Final residual = 4.1772e-06, No Iterations 424
time step continuity errors : sum local = 1.14189e-09, global = 8.26222e-12, cumulative = 1.52015e-08
DICPCG:  Solving for p, Initial residual = 8.40861e-06, Final residual = 9.58204e-07, No Iterations 20
time step continuity errors : sum local = 2.60865e-10, global = -4.14687e-11, cumulative = 1.516e-08
ExecutionTime = 455.04 s  ClockTime = 463 s

Time = 2325

Courant Number mean: 0.0356522 max: 0.294153
smoothSolver:  Solving for Ux, Initial residual = 0.00263333, Final residual = 2.51522e-06, No Iterations 1
smoothSolver:  Solving for Uy, Initial residual = 0.0026333, Final residual = 2.51542e-06, No Iterations 1
smoothSolver:  Solving for Uz, Initial residual = 0.00194986, Final residual = 1.07571e-06, No Iterations 1
DICPCG:  Solving for p, Initial residual = 8.54543e-05, Final residual = 3.61762e-06, No Iterations 430
time step continuity errors : sum local = 9.84844e-10, global = 1.50924e-11, cumulative = 1.51751e-08
DICPCG:  Solving for p, Initial residual = 7.90453e-06, Final residual = 9.97788e-07, No Iterations 20
time step continuity errors : sum local = 2.70536e-10, global = -4.07014e-11, cumulative = 1.51344e-08
ExecutionTime = 458.51 s  ClockTime = 467 s

Time = 2350

Courant Number mean: 0.0356372 max: 0.294153
smoothSolver:  Solving for Ux, Initial residual = 0.00260812, Final residual = 2.4727e-06, No Iterations 1
smoothSolver:  Solving for Uy, Initial residual = 0.00260816, Final residual = 2.47295e-06, No Iterations 1
smoothSolver:  Solving for Uz, Initial residual = 0.00192727, Final residual = 1.06278e-06, No Iterations 1
DICPCG:  Solving for p, Initial residual = 8.44024e-05, Final residual = 3.7054e-06, No Iterations 430
time step continuity errors : sum local = 1.00464e-09, global = 9.80304e-12, cumulative = 1.51442e-08
DICPCG:  Solving for p, Initial residual = 7.92789e-06, Final residual = 9.57532e-07, No Iterations 20
[...]
smoothSolver:  Solving for Uy, Initial residual = 1.86408e-06, Final residual = 1.86408e-06, No Iterations 0
smoothSolver:  Solving for Uz, Initial residual = 2.20376e-08, Final residual = 2.20376e-08, No Iterations 0
DICPCG:  Solving for p, Initial residual = 1.17515e-05, Final residual = 9.67258e-07, No Iterations 4
time step continuity errors : sum local = 1.34549e-10, global = 8.53255e-11, cumulative = 5.06044e-08
DICPCG:  Solving for p, Initial residual = 1.11508e-06, Final residual = 8.51597e-07, No Iterations 1
time step continuity errors : sum local = 1.1846e-10, global = 8.53384e-11, cumulative = 5.06898e-08
ExecutionTime = 5263.65 s  ClockTime = 5452 s

Time = 99450

Courant Number mean: 0.0321282 max: 0.294184
smoothSolver:  Solving for Ux, Initial residual = 1.90279e-06, Final residual = 1.90279e-06, No Iterations 0
smoothSolver:  Solving for Uy, Initial residual = 1.86382e-06, Final residual = 1.86382e-06, No Iterations 0
smoothSolver:  Solving for Uz, Initial residual = 2.20038e-08, Final residual = 2.20038e-08, No Iterations 0
DICPCG:  Solving for p, Initial residual = 1.17572e-05, Final residual = 9.74615e-07, No Iterations 4
time step continuity errors : sum local = 1.35572e-10, global = 8.59134e-11, cumulative = 5.07757e-08
DICPCG:  Solving for p, Initial residual = 1.12221e-06, Final residual = 8.61795e-07, No Iterations 1
time step continuity errors : sum local = 1.19879e-10, global = 8.59135e-11, cumulative = 5.08616e-08
ExecutionTime = 5264.07 s  ClockTime = 5453 s

Time = 99475

Courant Number mean: 0.0321282 max: 0.294184
smoothSolver:  Solving for Ux, Initial residual = 1.90212e-06, Final residual = 1.90212e-06, No Iterations 0
smoothSolver:  Solving for Uy, Initial residual = 1.86254e-06, Final residual = 1.86254e-06, No Iterations 0
smoothSolver:  Solving for Uz, Initial residual = 2.19627e-08, Final residual = 2.19627e-08, No Iterations 0
DICPCG:  Solving for p, Initial residual = 1.17648e-05, Final residual = 9.80771e-07, No Iterations 4
time step continuity errors : sum local = 1.36429e-10, global = 8.69279e-11, cumulative = 5.09485e-08
DICPCG:  Solving for p, Initial residual = 1.12833e-06, Final residual = 8.64528e-07, No Iterations 1
time step continuity errors : sum local = 1.20259e-10, global = 8.69367e-11, cumulative = 5.10355e-08
ExecutionTime = 5264.51 s  ClockTime = 5453 s

Time = 99500

Courant Number mean: 0.0321282 max: 0.294184
smoothSolver:  Solving for Ux, Initial residual = 1.90139e-06, Final residual = 1.90139e-06, No Iterations 0
smoothSolver:  Solving for Uy, Initial residual = 1.86242e-06, Final residual = 1.86242e-06, No Iterations 0
smoothSolver:  Solving for Uz, Initial residual = 2.19292e-08, Final residual = 2.19292e-08, No Iterations 0
DICPCG:  Solving for p, Initial residual = 1.17696e-05, Final residual = 9.86526e-07, No Iterations 4
time step continuity errors : sum local = 1.37229e-10, global = 8.74853e-11, cumulative = 5.11229e-08
DICPCG:  Solving for p, Initial residual = 1.13387e-06, Final residual = 8.73231e-07, No Iterations 1
time step continuity errors : sum local = 1.21469e-10, global = 8.74817e-11, cumulative = 5.12104e-08
ExecutionTime = 5264.91 s  ClockTime = 5454 s

Time = 99525

Courant Number mean: 0.0321282 max: 0.294184
smoothSolver:  Solving for Ux, Initial residual = 1.90089e-06, Final residual = 1.90089e-06, No Iterations 0
smoothSolver:  Solving for Uy, Initial residual = 1.86126e-06, Final residual = 1.86126e-06, No Iterations 0
smoothSolver:  Solving for Uz, Initial residual = 2.18919e-08, Final residual = 2.18919e-08, No Iterations 0
DICPCG:  Solving for p, Initial residual = 1.17754e-05, Final residual = 9.91527e-07, No Iterations 4
time step continuity errors : sum local = 1.37925e-10, global = 8.84698e-11, cumulative = 5.12989e-08
DICPCG:  Solving for p, Initial residual = 1.13884e-06, Final residual = 8.7476e-07, No Iterations 1
time step continuity errors : sum local = 1.21682e-10, global = 8.84745e-11, cumulative = 5.13874e-08
ExecutionTime = 5265.34 s  ClockTime = 5454 s

Time = 99550

Courant Number mean: 0.0321282 max: 0.294184
smoothSolver:  Solving for Ux, Initial residual = 1.90041e-06, Final residual = 1.90041e-06, No Iterations 0
smoothSolver:  Solving for Uy, Initial residual = 1.86147e-06, Final residual = 1.86147e-06, No Iterations 0
smoothSolver:  Solving for Uz, Initial residual = 2.18663e-08, Final residual = 2.18663e-08, No Iterations 0
DICPCG:  Solving for p, Initial residual = 1.17792e-05, Final residual = 9.95694e-07, No Iterations 4
time step continuity errors : sum local = 1.38504e-10, global = 8.89951e-11, cumulative = 5.14764e-08
DICPCG:  Solving for p, Initial residual = 1.14283e-06, Final residual = 8.81986e-07, No Iterations 1
time step continuity errors : sum local = 1.22687e-10, global = 8.89878e-11, cumulative = 5.15653e-08
ExecutionTime = 5265.74 s  ClockTime = 5454 s

Time = 99575

Courant Number mean: 0.0321282 max: 0.294184
smoothSolver:  Solving for Ux, Initial residual = 1.90028e-06, Final residual = 1.90028e-06, No Iterations 0
smoothSolver:  Solving for Uy, Initial residual = 1.86069e-06, Final residual = 1.86069e-06, No Iterations 0
smoothSolver:  Solving for Uz, Initial residual = 2.18392e-08, Final residual = 2.18392e-08, No Iterations 0
DICPCG:  Solving for p, Initial residual = 1.17835e-05, Final residual = 9.99491e-07, No Iterations 4
time step continuity errors : sum local = 1.39033e-10, global = 8.99487e-11, cumulative = 5.16553e-08
DICPCG:  Solving for p, Initial residual = 1.14661e-06, Final residual = 8.82297e-07, No Iterations 1
time step continuity errors : sum local = 1.22731e-10, global = 8.99495e-11, cumulative = 5.17452e-08
ExecutionTime = 5266.16 s  ClockTime = 5455 s

Time = 99600

Courant Number mean: 0.0321282 max: 0.294184
smoothSolver:  Solving for Ux, Initial residual = 1.90019e-06, Final residual = 1.90019e-06, No Iterations 0
smoothSolver:  Solving for Uy, Initial residual = 1.8613e-06, Final residual = 1.8613e-06, No Iterations 0
smoothSolver:  Solving for Uz, Initial residual = 2.18251e-08, Final residual = 2.18251e-08, No Iterations 0
DICPCG:  Solving for p, Initial residual = 1.17863e-05, Final residual = 9.22716e-07, No Iterations 5
time step continuity errors : sum local = 1.28353e-10, global = 9.04309e-11, cumulative = 5.18357e-08
DICPCG:  Solving for p, Initial residual = 1.05724e-06, Final residual = 8.41244e-07, No Iterations 1
time step continuity errors : sum local = 1.1702e-10, global = 9.04195e-11, cumulative = 5.19261e-08
ExecutionTime = 5266.59 s  ClockTime = 5455 s

Time = 99625

Courant Number mean: 0.0321282 max: 0.294184
smoothSolver:  Solving for Ux, Initial residual = 1.9333e-06, Final residual = 1.9333e-06, No Iterations 0
smoothSolver:  Solving for Uy, Initial residual = 1.88138e-06, Final residual = 1.88138e-06, No Iterations 0
smoothSolver:  Solving for Uz, Initial residual = 2.18685e-08, Final residual = 2.18685e-08, No Iterations 0
DICPCG:  Solving for p, Initial residual = 1.16923e-05, Final residual = 9.51274e-07, No Iterations 5
time step continuity errors : sum local = 1.32325e-10, global = 9.13806e-11, cumulative = 5.20175e-08
DICPCG:  Solving for p, Initial residual = 1.08387e-06, Final residual = 8.63483e-07, No Iterations 1
time step continuity errors : sum local = 1.20113e-10, global = 9.13702e-11, cumulative = 5.21088e-08
ExecutionTime = 5267.02 s  ClockTime = 5456 s

Time = 99650

Courant Number mean: 0.0321282 max: 0.294184
smoothSolver:  Solving for Ux, Initial residual = 1.9934e-06, Final residual = 1.9934e-06, No Iterations 0
smoothSolver:  Solving for Uy, Initial residual = 1.94157e-06, Final residual = 1.94157e-06, No Iterations 0
smoothSolver:  Solving for Uz, Initial residual = 2.2007e-08, Final residual = 2.2007e-08, No Iterations 0
DICPCG:  Solving for p, Initial residual = 1.17483e-05, Final residual = 9.53605e-07, No Iterations 5
time step continuity errors : sum local = 1.3265e-10, global = 9.17549e-11, cumulative = 5.22006e-08
DICPCG:  Solving for p, Initial residual = 1.08761e-06, Final residual = 8.67685e-07, No Iterations 1
time step continuity errors : sum local = 1.20698e-10, global = 9.17419e-11, cumulative = 5.22923e-08
ExecutionTime = 5267.46 s  ClockTime = 5456 s

Time = 99675

Courant Number mean: 0.0321282 max: 0.294184
smoothSolver:  Solving for Ux, Initial residual = 1.99965e-06, Final residual = 1.99965e-06, No Iterations 0
smoothSolver:  Solving for Uy, Initial residual = 1.95617e-06, Final residual = 1.95617e-06, No Iterations 0
smoothSolver:  Solving for Uz, Initial residual = 2.20245e-08, Final residual = 2.20245e-08, No Iterations 0
DICPCG:  Solving for p, Initial residual = 1.17742e-05, Final residual = 9.46234e-07, No Iterations 5
time step continuity errors : sum local = 1.31624e-10, global = 9.26915e-11, cumulative = 5.2385e-08
DICPCG:  Solving for p, Initial residual = 1.08157e-06, Final residual = 8.64148e-07, No Iterations 1
time step continuity errors : sum local = 1.20206e-10, global = 9.26805e-11, cumulative = 5.24777e-08
ExecutionTime = 5267.92 s  ClockTime = 5457 s

Time = 99700

Courant Number mean: 0.0321282 max: 0.294184
smoothSolver:  Solving for Ux, Initial residual = 1.99902e-06, Final residual = 1.99902e-06, No Iterations 0
smoothSolver:  Solving for Uy, Initial residual = 1.9528e-06, Final residual = 1.9528e-06, No Iterations 0
smoothSolver:  Solving for Uz, Initial residual = 2.20345e-08, Final residual = 2.20345e-08, No Iterations 0
DICPCG:  Solving for p, Initial residual = 1.17738e-05, Final residual = 9.51338e-07, No Iterations 5
time step continuity errors : sum local = 1.32334e-10, global = 9.30392e-11, cumulative = 5.25708e-08
DICPCG:  Solving for p, Initial residual = 1.08622e-06, Final residual = 8.68182e-07, No Iterations 1
time step continuity errors : sum local = 1.20767e-10, global = 9.30224e-11, cumulative = 5.26638e-08
ExecutionTime = 5268.3 s  ClockTime = 5457 s

Time = 99725

Courant Number mean: 0.0321282 max: 0.294184
smoothSolver:  Solving for Ux, Initial residual = 1.99984e-06, Final residual = 1.99984e-06, No Iterations 0
smoothSolver:  Solving for Uy, Initial residual = 1.95203e-06, Final residual = 1.95203e-06, No Iterations 0
smoothSolver:  Solving for Uz, Initial residual = 2.20269e-08, Final residual = 2.20269e-08, No Iterations 0
DICPCG:  Solving for p, Initial residual = 1.17799e-05, Final residual = 9.52413e-07, No Iterations 5
time step continuity errors : sum local = 1.32484e-10, global = 9.39466e-11, cumulative = 5.27577e-08
DICPCG:  Solving for p, Initial residual = 1.08764e-06, Final residual = 8.70015e-07, No Iterations 1
time step continuity errors : sum local = 1.21022e-10, global = 9.39328e-11, cumulative = 5.28517e-08
ExecutionTime = 5268.73 s  ClockTime = 5458 s

Time = 99750

Courant Number mean: 0.0321282 max: 0.294184
smoothSolver:  Solving for Ux, Initial residual = 1.99872e-06, Final residual = 1.99872e-06, No Iterations 0
smoothSolver:  Solving for Uy, Initial residual = 1.9538e-06, Final residual = 1.9538e-06, No Iterations 0
smoothSolver:  Solving for Uz, Initial residual = 2.20471e-08, Final residual = 2.20471e-08, No Iterations 0
DICPCG:  Solving for p, Initial residual = 1.17846e-05, Final residual = 9.58915e-07, No Iterations 5
time step continuity errors : sum local = 1.33388e-10, global = 9.4272e-11, cumulative = 5.29459e-08
DICPCG:  Solving for p, Initial residual = 1.09385e-06, Final residual = 8.75731e-07, No Iterations 1
time step continuity errors : sum local = 1.21817e-10, global = 9.42533e-11, cumulative = 5.30402e-08
ExecutionTime = 5269.16 s  ClockTime = 5458 s

Time = 99775

Courant Number mean: 0.0321282 max: 0.294184
smoothSolver:  Solving for Ux, Initial residual = 2.00037e-06, Final residual = 2.00037e-06, No Iterations 0
smoothSolver:  Solving for Uy, Initial residual = 1.95322e-06, Final residual = 1.95322e-06, No Iterations 0
smoothSolver:  Solving for Uz, Initial residual = 2.20369e-08, Final residual = 2.20369e-08, No Iterations 0
DICPCG:  Solving for p, Initial residual = 1.17912e-05, Final residual = 9.61729e-07, No Iterations 5
time step continuity errors : sum local = 1.3378e-10, global = 9.51639e-11, cumulative = 5.31353e-08
DICPCG:  Solving for p, Initial residual = 1.09683e-06, Final residual = 8.78984e-07, No Iterations 1
time step continuity errors : sum local = 1.2227e-10, global = 9.5149e-11, cumulative = 5.32305e-08
ExecutionTime = 5269.63 s  ClockTime = 5458 s

Time = 99800

Courant Number mean: 0.0321282 max: 0.294184
smoothSolver:  Solving for Ux, Initial residual = 1.99998e-06, Final residual = 1.99998e-06, No Iterations 0
smoothSolver:  Solving for Uy, Initial residual = 1.95411e-06, Final residual = 1.95411e-06, No Iterations 0
smoothSolver:  Solving for Uz, Initial residual = 2.20566e-08, Final residual = 2.20566e-08, No Iterations 0
DICPCG:  Solving for p, Initial residual = 1.17947e-05, Final residual = 9.6808e-07, No Iterations 5
time step continuity errors : sum local = 1.34663e-10, global = 9.54801e-11, cumulative = 5.3326e-08
DICPCG:  Solving for p, Initial residual = 1.10288e-06, Final residual = 8.84489e-07, No Iterations 1
time step continuity errors : sum local = 1.23035e-10, global = 9.54614e-11, cumulative = 5.34214e-08
ExecutionTime = 5270.02 s  ClockTime = 5459 s

Time = 99825

Courant Number mean: 0.0321282 max: 0.294184
smoothSolver:  Solving for Ux, Initial residual = 2.00056e-06, Final residual = 2.00056e-06, No Iterations 0
smoothSolver:  Solving for Uy, Initial residual = 1.95396e-06, Final residual = 1.95396e-06, No Iterations 0
smoothSolver:  Solving for Uz, Initial residual = 2.2039e-08, Final residual = 2.2039e-08, No Iterations 0
DICPCG:  Solving for p, Initial residual = 1.18013e-05, Final residual = 9.7122e-07, No Iterations 5
time step continuity errors : sum local = 1.351e-10, global = 9.63705e-11, cumulative = 5.35178e-08
DICPCG:  Solving for p, Initial residual = 1.10614e-06, Final residual = 8.87945e-07, No Iterations 1
time step continuity errors : sum local = 1.23516e-10, global = 9.63564e-11, cumulative = 5.36142e-08
ExecutionTime = 5270.47 s  ClockTime = 5459 s

Time = 99850

Courant Number mean: 0.0321282 max: 0.294184
smoothSolver:  Solving for Ux, Initial residual = 2.00006e-06, Final residual = 2.00006e-06, No Iterations 0
smoothSolver:  Solving for Uy, Initial residual = 1.95428e-06, Final residual = 1.95428e-06, No Iterations 0
smoothSolver:  Solving for Uz, Initial residual = 2.20559e-08, Final residual = 2.20559e-08, No Iterations 0
DICPCG:  Solving for p, Initial residual = 1.18048e-05, Final residual = 9.77995e-07, No Iterations 5
time step continuity errors : sum local = 1.36042e-10, global = 9.66912e-11, cumulative = 5.37109e-08
DICPCG:  Solving for p, Initial residual = 1.11262e-06, Final residual = 8.93811e-07, No Iterations 1
time step continuity errors : sum local = 1.24332e-10, global = 9.66744e-11, cumulative = 5.38075e-08
ExecutionTime = 5270.91 s  ClockTime = 5460 s

Time = 99875

Courant Number mean: 0.0321282 max: 0.294184
smoothSolver:  Solving for Ux, Initial residual = 2.00069e-06, Final residual = 2.00069e-06, No Iterations 0
smoothSolver:  Solving for Uy, Initial residual = 1.95387e-06, Final residual = 1.95387e-06, No Iterations 0
smoothSolver:  Solving for Uz, Initial residual = 2.20305e-08, Final residual = 2.20305e-08, No Iterations 0
DICPCG:  Solving for p, Initial residual = 1.18128e-05, Final residual = 9.82847e-07, No Iterations 5
time step continuity errors : sum local = 1.36717e-10, global = 9.75937e-11, cumulative = 5.39051e-08
DICPCG:  Solving for p, Initial residual = 1.11757e-06, Final residual = 8.98896e-07, No Iterations 1
time step continuity errors : sum local = 1.25039e-10, global = 9.75818e-11, cumulative = 5.40027e-08
ExecutionTime = 5271.35 s  ClockTime = 5460 s

Time = 99900

Courant Number mean: 0.0321282 max: 0.294184
smoothSolver:  Solving for Ux, Initial residual = 1.99954e-06, Final residual = 1.99954e-06, No Iterations 0
smoothSolver:  Solving for Uy, Initial residual = 1.95397e-06, Final residual = 1.95397e-06, No Iterations 0
smoothSolver:  Solving for Uz, Initial residual = 2.2043e-08, Final residual = 2.2043e-08, No Iterations 0
DICPCG:  Solving for p, Initial residual = 1.18175e-05, Final residual = 9.91142e-07, No Iterations 5
time step continuity errors : sum local = 1.37871e-10, global = 9.79311e-11, cumulative = 5.41006e-08
DICPCG:  Solving for p, Initial residual = 1.12545e-06, Final residual = 9.06249e-07, No Iterations 1
time step continuity errors : sum local = 1.26062e-10, global = 9.79175e-11, cumulative = 5.41985e-08
ExecutionTime = 5271.8 s  ClockTime = 5461 s

Time = 99925

Courant Number mean: 0.0321282 max: 0.294184
smoothSolver:  Solving for Ux, Initial residual = 2.00031e-06, Final residual = 2.00031e-06, No Iterations 0
smoothSolver:  Solving for Uy, Initial residual = 1.95342e-06, Final residual = 1.95342e-06, No Iterations 0
smoothSolver:  Solving for Uz, Initial residual = 2.20097e-08, Final residual = 2.20097e-08, No Iterations 0
DICPCG:  Solving for p, Initial residual = 1.1826e-05, Final residual = 9.96358e-07, No Iterations 5
time step continuity errors : sum local = 1.38597e-10, global = 9.88567e-11, cumulative = 5.42974e-08
DICPCG:  Solving for p, Initial residual = 1.13075e-06, Final residual = 9.1161e-07, No Iterations 1
time step continuity errors : sum local = 1.26808e-10, global = 9.88484e-11, cumulative = 5.43963e-08
ExecutionTime = 5272.25 s  ClockTime = 5461 s

Time = 99950

Courant Number mean: 0.0321282 max: 0.294184
smoothSolver:  Solving for Ux, Initial residual = 1.99897e-06, Final residual = 1.99897e-06, No Iterations 0
smoothSolver:  Solving for Uy, Initial residual = 1.95334e-06, Final residual = 1.95334e-06, No Iterations 0
smoothSolver:  Solving for Uz, Initial residual = 2.2017e-08, Final residual = 2.2017e-08, No Iterations 0
DICPCG:  Solving for p, Initial residual = 1.18306e-05, Final residual = 9.79102e-07, No Iterations 315
time step continuity errors : sum local = 1.36196e-10, global = -2.88326e-12, cumulative = 5.43934e-08
DICPCG:  Solving for p, Initial residual = 1.25845e-06, Final residual = 7.22436e-07, No Iterations 1
time step continuity errors : sum local = 1.0034e-10, global = -1.76071e-11, cumulative = 5.43758e-08
ExecutionTime = 5275.14 s  ClockTime = 5464 s

Time = 99975

Courant Number mean: 0.0321282 max: 0.294184
smoothSolver:  Solving for Ux, Initial residual = 8.49301e-06, Final residual = 8.49301e-06, No Iterations 0
smoothSolver:  Solving for Uy, Initial residual = 8.42472e-06, Final residual = 8.42472e-06, No Iterations 0
smoothSolver:  Solving for Uz, Initial residual = 8.45217e-07, Final residual = 8.45217e-07, No Iterations 0
DICPCG:  Solving for p, Initial residual = 1.53923e-05, Final residual = 9.70344e-07, No Iterations 387
time step continuity errors : sum local = 1.34772e-10, global = 3.56794e-12, cumulative = 5.43793e-08
DICPCG:  Solving for p, Initial residual = 1.16387e-06, Final residual = 6.27162e-07, No Iterations 1
time step continuity errors : sum local = 8.72423e-11, global = 6.52415e-12, cumulative = 5.43859e-08
ExecutionTime = 5278.83 s  ClockTime = 5468 s

Time = 100000

Courant Number mean: 0.0321282 max: 0.294184
smoothSolver:  Solving for Ux, Initial residual = 3.46961e-06, Final residual = 3.46961e-06, No Iterations 0
smoothSolver:  Solving for Uy, Initial residual = 3.37491e-06, Final residual = 3.37491e-06, No Iterations 0
smoothSolver:  Solving for Uz, Initial residual = 4.48701e-08, Final residual = 4.48701e-08, No Iterations 0
DICPCG:  Solving for p, Initial residual = 1.28317e-05, Final residual = 9.26963e-07, No Iterations 7
time step continuity errors : sum local = 1.28947e-10, global = 1.77686e-11, cumulative = 5.44036e-08
DICPCG:  Solving for p, Initial residual = 1.08598e-06, Final residual = 8.00506e-07, No Iterations 1
time step continuity errors : sum local = 1.11356e-10, global = 1.92328e-11, cumulative = 5.44229e-08
ExecutionTime = 5280.35 s  ClockTime = 5471 s

End

